3365
  -OEChem-10051719093D

 34 36  0     0  0  0  0  0  0999 V2000
    0.1203    0.8123   -2.3583 F   0  0  0  0  0  0  0  0  0  0  0  0
    0.0743    4.5194    0.5816 F   0  0  0  0  0  0  0  0  0  0  0  0
   -0.0390   -1.7461    1.0352 O   0  0  0  0  0  0  0  0  0  0  0  0
    2.5378   -1.2646   -0.2988 N   0  0  0  0  0  0  0  0  0  0  0  0
   -2.5840   -1.2224   -0.3378 N   0  0  0  0  0  0  0  0  0  0  0  0
    3.1935   -0.1262   -0.5079 N   0  0  0  0  0  0  0  0  0  0  0  0
   -3.1060   -2.1001    0.5126 N   0  0  0  0  0  0  0  0  0  0  0  0
    4.2912   -1.5100    0.9456 N   0  0  0  0  0  0  0  0  0  0  0  0
   -4.3879   -0.2176    0.3002 N   0  0  0  0  0  0  0  0  0  0  0  0
   -0.0448   -1.0408   -0.2311 C   0  0  0  0  0  0  0  0  0  0  0  0
    1.2615   -1.5086   -0.9709 C   0  0  0  0  0  0  0  0  0  0  0  0
   -1.3185   -1.5229   -1.0139 C   0  0  0  0  0  0  0  0  0  0  0  0
   -0.0121    0.4352   -0.0179 C   0  0  0  0  0  0  0  0  0  0  0  0
    0.0701    1.2987   -1.1102 C   0  0  0  0  0  0  0  0  0  0  0  0
   -0.0651    0.9512    1.2770 C   0  0  0  0  0  0  0  0  0  0  0  0
    0.0999    2.6786   -0.9077 C   0  0  0  0  0  0  0  0  0  0  0  0
   -0.0353    2.3308    1.4795 C   0  0  0  0  0  0  0  0  0  0  0  0
    3.1775   -2.0854    0.5558 C   0  0  0  0  0  0  0  0  0  0  0  0
   -3.3303   -0.1116   -0.4703 C   0  0  0  0  0  0  0  0  0  0  0  0
    0.0471    3.1946    0.3873 C   0  0  0  0  0  0  0  0  0  0  0  0
    4.2581   -0.3221    0.2729 C   0  0  0  0  0  0  0  0  0  0  0  0
   -4.2084   -1.4422    0.8772 C   0  0  0  0  0  0  0  0  0  0  0  0
    1.3478   -1.0821   -1.9765 H   0  0  0  0  0  0  0  0  0  0  0  0
    1.2189   -2.5985   -1.1062 H   0  0  0  0  0  0  0  0  0  0  0  0
   -1.3788   -1.0742   -2.0118 H   0  0  0  0  0  0  0  0  0  0  0  0
   -1.2964   -2.6128   -1.1423 H   0  0  0  0  0  0  0  0  0  0  0  0
   -0.0621   -2.6997    0.8456 H   0  0  0  0  0  0  0  0  0  0  0  0
   -0.1333    0.3145    2.1538 H   0  0  0  0  0  0  0  0  0  0  0  0
    0.1635    3.3508   -1.7579 H   0  0  0  0  0  0  0  0  0  0  0  0
   -0.0776    2.7336    2.4872 H   0  0  0  0  0  0  0  0  0  0  0  0
    2.8147   -3.0570    0.8603 H   0  0  0  0  0  0  0  0  0  0  0  0
   -3.0869    0.7214   -1.1144 H   0  0  0  0  0  0  0  0  0  0  0  0
    5.0336    0.4247    0.3551 H   0  0  0  0  0  0  0  0  0  0  0  0
   -4.9025   -1.8680    1.5863 H   0  0  0  0  0  0  0  0  0  0  0  0
  1 14  1  0  0  0  0
  2 20  1  0  0  0  0
  3 10  1  0  0  0  0
  3 27  1  0  0  0  0
  4  6  1  0  0  0  0
  4 11  1  0  0  0  0
  4 18  1  0  0  0  0
  5  7  1  0  0  0  0
  5 12  1  0  0  0  0
  5 19  1  0  0  0  0
  6 21  2  0  0  0  0
  7 22  2  0  0  0  0
  8 18  2  0  0  0  0
  8 21  1  0  0  0  0
  9 19  2  0  0  0  0
  9 22  1  0  0  0  0
 10 11  1  0  0  0  0
 10 12  1  0  0  0  0
 10 13  1  0  0  0  0
 11 23  1  0  0  0  0
 11 24  1  0  0  0  0
 12 25  1  0  0  0  0
 12 26  1  0  0  0  0
 13 14  2  0  0  0  0
 13 15  1  0  0  0  0
 14 16  1  0  0  0  0
 15 17  2  0  0  0  0
 15 28  1  0  0  0  0
 16 20  2  0  0  0  0
 16 29  1  0  0  0  0
 17 20  1  0  0  0  0
 17 30  1  0  0  0  0
 18 31  1  0  0  0  0
 19 32  1  0  0  0  0
 21 33  1  0  0  0  0
 22 34  1  0  0  0  0
M  END
> <DATABASE_ID>
DB00196

> <DATABASE_NAME>
drugbank

> <ORIGINAL_SOURCE>
PUBCHEM

> <ORIGINAL_SOURCE_URL>
https://pubchem.ncbi.nlm.nih.gov/rest/pug/compound/inchikey/RFHAOTPXVQNOHP-UHFFFAOYSA-N/SDF?record_type=3d

> <SMILES>
OC(CN1C=NC=N1)(CN1C=NC=N1)C1=C(F)C=C(F)C=C1

> <INCHI_IDENTIFIER>
InChI=1S/C13H12F2N6O/c14-10-1-2-11(12(15)3-10)13(22,4-20-8-16-6-18-20)5-21-9-17-7-19-21/h1-3,6-9,22H,4-5H2

> <INCHI_KEY>
RFHAOTPXVQNOHP-UHFFFAOYSA-N

> <FORMULA>
C13H12F2N6O

> <MOLECULAR_WEIGHT>
306.2708

> <EXACT_MASS>
306.104065446

> <JCHEM_ACCEPTOR_COUNT>
5

> <JCHEM_AVERAGE_POLARIZABILITY>
26.521181986617826

> <JCHEM_BIOAVAILABILITY>
1

> <JCHEM_DONOR_COUNT>
1

> <JCHEM_FORMAL_CHARGE>
0

> <JCHEM_GHOSE_FILTER>
1

> <JCHEM_IUPAC>
2-(2,4-difluorophenyl)-1,3-bis(1H-1,2,4-triazol-1-yl)propan-2-ol

> <ALOGPS_LOGP>
0.58

> <JCHEM_LOGP>
0.5609582823333339

> <ALOGPS_LOGS>
-2.34

> <JCHEM_MDDR_LIKE_RULE>
0

> <JCHEM_NUMBER_OF_RINGS>
3

> <JCHEM_PHYSIOLOGICAL_CHARGE>
0

> <JCHEM_PKA_STRONGEST_ACIDIC>
12.707208218459204

> <JCHEM_PKA_STRONGEST_BASIC>
2.563235647156804

> <JCHEM_POLAR_SURFACE_AREA>
81.65

> <JCHEM_REFRACTIVITY>
97.1995

> <JCHEM_ROTATABLE_BOND_COUNT>
5

> <JCHEM_RULE_OF_FIVE>
1

> <ALOGPS_SOLUBILITY>
1.39e+00 g/l

> <JCHEM_TRADITIONAL_IUPAC>
fluconazole

> <JCHEM_VEBER_RULE>
0

$$$$
5353853
  -OEChem-10051719103D

 39 41  0     0  0  0  0  0  0999 V2000
    2.6805   -2.6040   -1.8562 Cl  0  0  0  0  0  0  0  0  0  0  0  0
   -3.1885    0.9690    2.2854 Cl  0  0  0  0  0  0  0  0  0  0  0  0
    7.0696   -1.2088    0.9261 Cl  0  0  0  0  0  0  0  0  0  0  0  0
   -7.4627   -0.2493   -0.7509 Cl  0  0  0  0  0  0  0  0  0  0  0  0
   -0.9196   -0.6715    0.0493 O   0  0  0  0  0  0  0  0  0  0  0  0
    0.8126    2.0233   -0.8993 N   0  0  0  0  0  0  0  0  0  0  0  0
    0.3920   -0.9761    0.4264 N   0  0  0  0  0  0  0  0  0  0  0  0
    1.4295    4.0639   -0.3556 N   0  0  0  0  0  0  0  0  0  0  0  0
    0.9069    0.6506   -1.4010 C   0  0  0  0  0  0  0  0  0  0  0  0
    1.2921   -0.3459   -0.2951 C   0  0  0  0  0  0  0  0  0  0  0  0
    2.7042   -0.5847   -0.0222 C   0  0  0  0  0  0  0  0  0  0  0  0
    3.4238   -1.5846   -0.6766 C   0  0  0  0  0  0  0  0  0  0  0  0
    3.3344    0.2216    0.9257 C   0  0  0  0  0  0  0  0  0  0  0  0
   -0.3035    2.6037   -0.4003 C   0  0  0  0  0  0  0  0  0  0  0  0
   -3.2171   -1.0884    0.4992 C   0  0  0  0  0  0  0  0  0  0  0  0
   -1.8018   -1.4011    0.8874 C   0  0  0  0  0  0  0  0  0  0  0  0
    1.8289    2.9175   -0.8598 C   0  0  0  0  0  0  0  0  0  0  0  0
    4.7735   -1.7781   -0.3829 C   0  0  0  0  0  0  0  0  0  0  0  0
    4.6841    0.0280    1.2192 C   0  0  0  0  0  0  0  0  0  0  0  0
    0.1012    3.8748   -0.0666 C   0  0  0  0  0  0  0  0  0  0  0  0
    5.4037   -0.9719    0.5650 C   0  0  0  0  0  0  0  0  0  0  0  0
   -3.9141   -0.0351    1.0836 C   0  0  0  0  0  0  0  0  0  0  0  0
   -3.8230   -1.8842   -0.4689 C   0  0  0  0  0  0  0  0  0  0  0  0
   -5.2287    0.2249    0.6967 C   0  0  0  0  0  0  0  0  0  0  0  0
   -5.1376   -1.6241   -0.8556 C   0  0  0  0  0  0  0  0  0  0  0  0
   -5.8406   -0.5696   -0.2728 C   0  0  0  0  0  0  0  0  0  0  0  0
   -0.0425    0.3930   -1.8793 H   0  0  0  0  0  0  0  0  0  0  0  0
    1.6769    0.6477   -2.1813 H   0  0  0  0  0  0  0  0  0  0  0  0
    2.7855    1.0001    1.4493 H   0  0  0  0  0  0  0  0  0  0  0  0
   -1.2571    2.1006   -0.3259 H   0  0  0  0  0  0  0  0  0  0  0  0
   -1.6027   -1.1812    1.9423 H   0  0  0  0  0  0  0  0  0  0  0  0
   -1.6120   -2.4755    0.7600 H   0  0  0  0  0  0  0  0  0  0  0  0
    2.8299    2.6973   -1.2052 H   0  0  0  0  0  0  0  0  0  0  0  0
    5.3366   -2.5573   -0.8924 H   0  0  0  0  0  0  0  0  0  0  0  0
    5.1617    0.6630    1.9610 H   0  0  0  0  0  0  0  0  0  0  0  0
   -0.4969    4.6638    0.3657 H   0  0  0  0  0  0  0  0  0  0  0  0
   -3.2866   -2.7071   -0.9336 H   0  0  0  0  0  0  0  0  0  0  0  0
   -5.7783    1.0473    1.1499 H   0  0  0  0  0  0  0  0  0  0  0  0
   -5.6015   -2.2510   -1.6129 H   0  0  0  0  0  0  0  0  0  0  0  0
  1 12  1  0  0  0  0
  2 22  1  0  0  0  0
  3 21  1  0  0  0  0
  4 26  1  0  0  0  0
  5  7  1  0  0  0  0
  5 16  1  0  0  0  0
  6  9  1  0  0  0  0
  6 14  1  0  0  0  0
  6 17  1  0  0  0  0
  7 10  2  0  0  0  0
  8 17  2  0  0  0  0
  8 20  1  0  0  0  0
  9 10  1  0  0  0  0
  9 27  1  0  0  0  0
  9 28  1  0  0  0  0
 10 11  1  0  0  0  0
 11 12  2  0  0  0  0
 11 13  1  0  0  0  0
 12 18  1  0  0  0  0
 13 19  2  0  0  0  0
 13 29  1  0  0  0  0
 14 20  2  0  0  0  0
 14 30  1  0  0  0  0
 15 16  1  0  0  0  0
 15 22  2  0  0  0  0
 15 23  1  0  0  0  0
 16 31  1  0  0  0  0
 16 32  1  0  0  0  0
 17 33  1  0  0  0  0
 18 21  2  0  0  0  0
 18 34  1  0  0  0  0
 19 21  1  0  0  0  0
 19 35  1  0  0  0  0
 20 36  1  0  0  0  0
 22 24  1  0  0  0  0
 23 25  2  0  0  0  0
 23 37  1  0  0  0  0
 24 26  2  0  0  0  0
 24 38  1  0  0  0  0
 25 26  1  0  0  0  0
 25 39  1  0  0  0  0
M  END
> <DATABASE_ID>
DB00239

> <DATABASE_NAME>
drugbank

> <ORIGINAL_SOURCE>
PUBCHEM

> <ORIGINAL_SOURCE_URL>
https://pubchem.ncbi.nlm.nih.gov/rest/pug/compound/inchikey/QRJJEGAJXVEBNE-HKOYGPOVSA-N/SDF?record_type=3d

> <SMILES>
ClC1=CC(Cl)=C(CO\N=C(/CN2C=CN=C2)C2=CC=C(Cl)C=C2Cl)C=C1

> <INCHI_IDENTIFIER>
InChI=1S/C18H13Cl4N3O/c19-13-2-1-12(16(21)7-13)10-26-24-18(9-25-6-5-23-11-25)15-4-3-14(20)8-17(15)22/h1-8,11H,9-10H2/b24-18+

> <INCHI_KEY>
QRJJEGAJXVEBNE-HKOYGPOVSA-N

> <FORMULA>
C18H13Cl4N3O

> <MOLECULAR_WEIGHT>
429.12

> <EXACT_MASS>
426.9812729

> <JCHEM_ACCEPTOR_COUNT>
3

> <JCHEM_ATOM_COUNT>
39

> <JCHEM_AVERAGE_POLARIZABILITY>
40.79437020696298

> <JCHEM_BIOAVAILABILITY>
1

> <JCHEM_DONOR_COUNT>
0

> <JCHEM_FORMAL_CHARGE>
0

> <JCHEM_GHOSE_FILTER>
0

> <JCHEM_IUPAC>
(Z)-[1-(2,4-dichlorophenyl)-2-(1H-imidazol-1-yl)ethylidene][(2,4-dichlorophenyl)methoxy]amine

> <ALOGPS_LOGP>
5.28

> <JCHEM_LOGP>
5.838766547333333

> <ALOGPS_LOGS>
-5.35

> <JCHEM_MDDR_LIKE_RULE>
1

> <JCHEM_NUMBER_OF_RINGS>
3

> <JCHEM_PHYSIOLOGICAL_CHARGE>
1

> <JCHEM_PKA_STRONGEST_BASIC>
6.738241434816746

> <JCHEM_POLAR_SURFACE_AREA>
39.41

> <JCHEM_REFRACTIVITY>
105.94699999999999

> <JCHEM_ROTATABLE_BOND_COUNT>
6

> <JCHEM_RULE_OF_FIVE>
0

> <ALOGPS_SOLUBILITY>
1.91e-03 g/l

> <JCHEM_TRADITIONAL_IUPAC>
salongo

> <JCHEM_VEBER_RULE>
1

$$$$
441383
  -OEChem-10051719113D

 67 71  0     1  0  0  0  0  0999 V2000
    3.8423   -1.6594    2.2730 Cl  0  0  0  0  0  0  0  0  0  0  0  0
    7.4265   -4.9255   -0.0615 Cl  0  0  0  0  0  0  0  0  0  0  0  0
    3.0837    0.1460    0.5581 O   0  0  0  0  0  0  0  0  0  0  0  0
    4.1567    0.6961   -1.4502 O   0  0  0  0  0  0  0  0  0  0  0  0
   -0.1028    0.7486   -1.1273 O   0  0  0  0  0  0  0  0  0  0  0  0
   -8.2561   -0.7522    0.2170 N   0  0  0  0  0  0  0  0  0  0  0  0
   -5.4977   -0.1023   -0.1405 N   0  0  0  0  0  0  0  0  0  0  0  0
    4.4571    2.6374    0.6464 N   0  0  0  0  0  0  0  0  0  0  0  0
    3.6076    2.9556    1.6348 N   0  0  0  0  0  0  0  0  0  0  0  0
    3.7602    4.6309    0.0848 N   0  0  0  0  0  0  0  0  0  0  0  0
   -7.8537    0.2611   -0.7663 C   0  0  0  0  0  0  0  0  0  0  0  0
   -7.3447   -0.7214    1.3673 C   0  0  0  0  0  0  0  0  0  0  0  0
   -6.4312    0.0038   -1.2689 C   0  0  0  0  0  0  0  0  0  0  0  0
   -5.9046   -1.0103    0.9363 C   0  0  0  0  0  0  0  0  0  0  0  0
    4.3670    0.2721   -0.0881 C   0  0  1  0  0  0  0  0  0  0  0  0
   -9.6353   -0.5283    0.6489 C   0  0  0  0  0  0  0  0  0  0  0  0
    2.1315    0.1513   -0.5076 C   0  0  2  0  0  0  0  0  0  0  0  0
    2.7771    1.0552   -1.5254 C   0  0  0  0  0  0  0  0  0  0  0  0
    5.1550    1.3581    0.6436 C   0  0  0  0  0  0  0  0  0  0  0  0
   -4.1377    0.1133   -0.3898 C   0  0  0  0  0  0  0  0  0  0  0  0
    5.1240   -1.0472   -0.0529 C   0  0  0  0  0  0  0  0  0  0  0  0
    0.7857    0.6389   -0.0163 C   0  0  0  0  0  0  0  0  0  0  0  0
  -10.0407   -1.5715    1.6865 C   0  0  0  0  0  0  0  0  0  0  0  0
  -10.5605   -0.5726   -0.5630 C   0  0  0  0  0  0  0  0  0  0  0  0
   -3.5999   -0.1963   -1.6389 C   0  0  0  0  0  0  0  0  0  0  0  0
   -3.3196    0.6364    0.6117 C   0  0  0  0  0  0  0  0  0  0  0  0
   -1.4258    0.5404   -0.8854 C   0  0  0  0  0  0  0  0  0  0  0  0
    4.9407   -1.9691    0.9778 C   0  0  0  0  0  0  0  0  0  0  0  0
    6.0187   -1.3250   -1.0863 C   0  0  0  0  0  0  0  0  0  0  0  0
   -2.2440    0.0172   -1.8867 C   0  0  0  0  0  0  0  0  0  0  0  0
   -1.9636    0.8498    0.3639 C   0  0  0  0  0  0  0  0  0  0  0  0
    5.6521   -3.1689    0.9750 C   0  0  0  0  0  0  0  0  0  0  0  0
    6.7302   -2.5247   -1.0889 C   0  0  0  0  0  0  0  0  0  0  0  0
    4.5421    3.6382   -0.2708 C   0  0  0  0  0  0  0  0  0  0  0  0
    6.5469   -3.4466   -0.0583 C   0  0  0  0  0  0  0  0  0  0  0  0
    3.2129    4.1705    1.2481 C   0  0  0  0  0  0  0  0  0  0  0  0
   -8.4827    0.2424   -1.6611 H   0  0  0  0  0  0  0  0  0  0  0  0
   -7.9160    1.2697   -0.3359 H   0  0  0  0  0  0  0  0  0  0  0  0
   -7.3893    0.2509    1.8763 H   0  0  0  0  0  0  0  0  0  0  0  0
   -7.5855   -1.4940    2.1036 H   0  0  0  0  0  0  0  0  0  0  0  0
   -6.4137   -0.9228   -1.8574 H   0  0  0  0  0  0  0  0  0  0  0  0
   -6.1537    0.8351   -1.9297 H   0  0  0  0  0  0  0  0  0  0  0  0
   -5.2558   -0.9070    1.8138 H   0  0  0  0  0  0  0  0  0  0  0  0
   -5.8141   -2.0470    0.5871 H   0  0  0  0  0  0  0  0  0  0  0  0
   -9.7427    0.4611    1.1148 H   0  0  0  0  0  0  0  0  0  0  0  0
    2.0528   -0.8682   -0.9062 H   0  0  0  0  0  0  0  0  0  0  0  0
    2.6475    2.1150   -1.2994 H   0  0  0  0  0  0  0  0  0  0  0  0
    2.4061    0.8781   -2.5392 H   0  0  0  0  0  0  0  0  0  0  0  0
    6.1262    1.5387    0.1664 H   0  0  0  0  0  0  0  0  0  0  0  0
    5.3357    1.0996    1.6939 H   0  0  0  0  0  0  0  0  0  0  0  0
    0.4305   -0.0797    0.7346 H   0  0  0  0  0  0  0  0  0  0  0  0
    0.8839    1.6162    0.4720 H   0  0  0  0  0  0  0  0  0  0  0  0
  -11.1245   -1.5465    1.8506 H   0  0  0  0  0  0  0  0  0  0  0  0
   -9.5878   -1.3878    2.6660 H   0  0  0  0  0  0  0  0  0  0  0  0
   -9.7877   -2.5879    1.3636 H   0  0  0  0  0  0  0  0  0  0  0  0
  -10.3674   -1.4477   -1.1944 H   0  0  0  0  0  0  0  0  0  0  0  0
  -10.4937    0.3306   -1.1779 H   0  0  0  0  0  0  0  0  0  0  0  0
  -11.6073   -0.6342   -0.2422 H   0  0  0  0  0  0  0  0  0  0  0  0
   -4.1995   -0.6213   -2.4386 H   0  0  0  0  0  0  0  0  0  0  0  0
   -3.7250    0.9004    1.5851 H   0  0  0  0  0  0  0  0  0  0  0  0
    6.1918   -0.6204   -1.8950 H   0  0  0  0  0  0  0  0  0  0  0  0
   -1.8291   -0.2293   -2.8603 H   0  0  0  0  0  0  0  0  0  0  0  0
   -1.3688    1.2877    1.1600 H   0  0  0  0  0  0  0  0  0  0  0  0
    5.5106   -3.8890    1.7782 H   0  0  0  0  0  0  0  0  0  0  0  0
    7.4265   -2.7266   -1.8988 H   0  0  0  0  0  0  0  0  0  0  0  0
    5.1690    3.5947   -1.1501 H   0  0  0  0  0  0  0  0  0  0  0  0
    2.5033    4.7376    1.8317 H   0  0  0  0  0  0  0  0  0  0  0  0
  1 28  1  0  0  0  0
  2 35  1  0  0  0  0
  3 15  1  0  0  0  0
  3 17  1  0  0  0  0
  4 15  1  0  0  0  0
  4 18  1  0  0  0  0
  5 22  1  0  0  0  0
  5 27  1  0  0  0  0
  6 11  1  0  0  0  0
  6 12  1  0  0  0  0
  6 16  1  0  0  0  0
  7 13  1  0  0  0  0
  7 14  1  0  0  0  0
  7 20  1  0  0  0  0
  8  9  1  0  0  0  0
  8 19  1  0  0  0  0
  8 34  1  0  0  0  0
  9 36  2  0  0  0  0
 10 34  2  0  0  0  0
 10 36  1  0  0  0  0
 11 13  1  0  0  0  0
 11 37  1  0  0  0  0
 11 38  1  0  0  0  0
 12 14  1  0  0  0  0
 12 39  1  0  0  0  0
 12 40  1  0  0  0  0
 13 41  1  0  0  0  0
 13 42  1  0  0  0  0
 14 43  1  0  0  0  0
 14 44  1  0  0  0  0
 15 19  1  0  0  0  0
 15 21  1  0  0  0  0
 16 23  1  0  0  0  0
 16 24  1  0  0  0  0
 16 45  1  0  0  0  0
 17 18  1  0  0  0  0
 17 22  1  0  0  0  0
 17 46  1  0  0  0  0
 18 47  1  0  0  0  0
 18 48  1  0  0  0  0
 19 49  1  0  0  0  0
 19 50  1  0  0  0  0
 20 25  2  0  0  0  0
 20 26  1  0  0  0  0
 21 28  2  0  0  0  0
 21 29  1  0  0  0  0
 22 51  1  0  0  0  0
 22 52  1  0  0  0  0
 23 53  1  0  0  0  0
 23 54  1  0  0  0  0
 23 55  1  0  0  0  0
 24 56  1  0  0  0  0
 24 57  1  0  0  0  0
 24 58  1  0  0  0  0
 25 30  1  0  0  0  0
 25 59  1  0  0  0  0
 26 31  2  0  0  0  0
 26 60  1  0  0  0  0
 27 30  2  0  0  0  0
 27 31  1  0  0  0  0
 28 32  1  0  0  0  0
 29 33  2  0  0  0  0
 29 61  1  0  0  0  0
 30 62  1  0  0  0  0
 31 63  1  0  0  0  0
 32 35  2  0  0  0  0
 32 64  1  0  0  0  0
 33 35  1  0  0  0  0
 33 65  1  0  0  0  0
 34 66  1  0  0  0  0
 36 67  1  0  0  0  0
M  END
> <DATABASE_ID>
DB00251

> <DATABASE_NAME>
drugbank

> <ORIGINAL_SOURCE>
PUBCHEM

> <ORIGINAL_SOURCE_URL>
https://pubchem.ncbi.nlm.nih.gov/rest/pug/compound/inchikey/BLSQLHNBWJLIBQ-OZXSUGGESA-N/SDF?record_type=3d

> <SMILES>
CC(C)N1CCN(CC1)C1=CC=C(OC[C@H]2CO[C@@](CN3C=NC=N3)(O2)C2=C(Cl)C=C(Cl)C=C2)C=C1

> <INCHI_IDENTIFIER>
InChI=1S/C26H31Cl2N5O3/c1-19(2)31-9-11-32(12-10-31)21-4-6-22(7-5-21)34-14-23-15-35-26(36-23,16-33-18-29-17-30-33)24-8-3-20(27)13-25(24)28/h3-8,13,17-19,23H,9-12,14-16H2,1-2H3/t23-,26-/m0/s1

> <INCHI_KEY>
BLSQLHNBWJLIBQ-OZXSUGGESA-N

> <FORMULA>
C26H31Cl2N5O3

> <MOLECULAR_WEIGHT>
532.462

> <EXACT_MASS>
531.180395297

> <JCHEM_ACCEPTOR_COUNT>
7

> <JCHEM_AVERAGE_POLARIZABILITY>
56.15330616306304

> <JCHEM_BIOAVAILABILITY>
0

> <JCHEM_DONOR_COUNT>
0

> <JCHEM_FORMAL_CHARGE>
0

> <JCHEM_GHOSE_FILTER>
0

> <JCHEM_IUPAC>
1-(4-{[(2R,4S)-2-(2,4-dichlorophenyl)-2-(1H-1,2,4-triazol-1-ylmethyl)-1,3-dioxolan-4-yl]methoxy}phenyl)-4-(propan-2-yl)piperazine

> <ALOGPS_LOGP>
4.58

> <JCHEM_LOGP>
5.374220876333333

> <ALOGPS_LOGS>
-4.66

> <JCHEM_MDDR_LIKE_RULE>
1

> <JCHEM_NUMBER_OF_RINGS>
5

> <JCHEM_PHYSIOLOGICAL_CHARGE>
1

> <JCHEM_PKA_STRONGEST_BASIC>
8.409370512807275

> <JCHEM_POLAR_SURFACE_AREA>
64.88

> <JCHEM_REFRACTIVITY>
153.18939999999995

> <JCHEM_ROTATABLE_BOND_COUNT>
8

> <JCHEM_RULE_OF_FIVE>
0

> <ALOGPS_SOLUBILITY>
1.16e-02 g/l

> <JCHEM_TRADITIONAL_IUPAC>
terconazole

> <JCHEM_VEBER_RULE>
0

$$$$
2812
  -OEChem-10051719113D

 42 45  0     0  0  0  0  0  0999 V2000
    0.6462   -0.1889    2.7630 Cl  0  0  0  0  0  0  0  0  0  0  0  0
   -0.4392   -0.0896   -1.7148 N   0  0  0  0  0  0  0  0  0  0  0  0
   -1.1342   -0.9044   -3.5599 N   0  0  0  0  0  0  0  0  0  0  0  0
   -0.1541    0.0030   -0.2084 C   0  0  0  0  0  0  0  0  0  0  0  0
    0.9178   -1.1183    0.2107 C   0  0  0  0  0  0  0  0  0  0  0  0
   -1.4994   -0.0743    0.4304 C   0  0  0  0  0  0  0  0  0  0  0  0
    0.7245    1.3132    0.0975 C   0  0  0  0  0  0  0  0  0  0  0  0
    1.2608   -1.1960    1.5031 C   0  0  0  0  0  0  0  0  0  0  0  0
    1.3571   -1.8700   -0.8149 C   0  0  0  0  0  0  0  0  0  0  0  0
   -2.4572    0.9030    0.1595 C   0  0  0  0  0  0  0  0  0  0  0  0
    0.1559    2.2192    0.9061 C   0  0  0  0  0  0  0  0  0  0  0  0
   -1.8001   -1.1236    1.2987 C   0  0  0  0  0  0  0  0  0  0  0  0
    1.9290    1.3563   -0.4896 C   0  0  0  0  0  0  0  0  0  0  0  0
   -0.1081    0.8548   -2.5651 C   0  0  0  0  0  0  0  0  0  0  0  0
   -1.0359   -1.1218   -2.2673 C   0  0  0  0  0  0  0  0  0  0  0  0
   -0.5572    0.3259   -3.7523 C   0  0  0  0  0  0  0  0  0  0  0  0
    2.1925   -2.1817    1.8284 C   0  0  0  0  0  0  0  0  0  0  0  0
    2.2889   -2.8556   -0.4897 C   0  0  0  0  0  0  0  0  0  0  0  0
   -3.7156    0.8308    0.7570 C   0  0  0  0  0  0  0  0  0  0  0  0
    0.9185    3.3566    1.1717 C   0  0  0  0  0  0  0  0  0  0  0  0
   -3.0584   -1.1959    1.8962 C   0  0  0  0  0  0  0  0  0  0  0  0
    2.6916    2.4937   -0.2240 C   0  0  0  0  0  0  0  0  0  0  0  0
    2.7066   -3.0115    0.8320 C   0  0  0  0  0  0  0  0  0  0  0  0
   -4.0162   -0.2187    1.6253 C   0  0  0  0  0  0  0  0  0  0  0  0
    2.1863    3.4938    0.6066 C   0  0  0  0  0  0  0  0  0  0  0  0
    1.1690   -1.7775   -1.8705 H   0  0  0  0  0  0  0  0  0  0  0  0
   -2.2603    1.7234   -0.5259 H   0  0  0  0  0  0  0  0  0  0  0  0
   -0.7947    2.1549    1.4104 H   0  0  0  0  0  0  0  0  0  0  0  0
   -1.1444   -1.9664    1.4827 H   0  0  0  0  0  0  0  0  0  0  0  0
    2.3473    0.6113   -1.1533 H   0  0  0  0  0  0  0  0  0  0  0  0
    0.3329    1.8223   -2.3801 H   0  0  0  0  0  0  0  0  0  0  0  0
   -1.4033   -2.0052   -1.7610 H   0  0  0  0  0  0  0  0  0  0  0  0
   -0.5086    0.7753   -4.7336 H   0  0  0  0  0  0  0  0  0  0  0  0
    2.5290   -2.3156    2.8534 H   0  0  0  0  0  0  0  0  0  0  0  0
    2.7052   -3.4900   -1.2671 H   0  0  0  0  0  0  0  0  0  0  0  0
   -4.4633    1.5887    0.5423 H   0  0  0  0  0  0  0  0  0  0  0  0
    0.5303    4.1312    1.8269 H   0  0  0  0  0  0  0  0  0  0  0  0
   -3.3008   -2.0242    2.5557 H   0  0  0  0  0  0  0  0  0  0  0  0
    3.6774    2.6027   -0.6669 H   0  0  0  0  0  0  0  0  0  0  0  0
    3.4356   -3.7760    1.0843 H   0  0  0  0  0  0  0  0  0  0  0  0
   -4.9979   -0.2782    2.0858 H   0  0  0  0  0  0  0  0  0  0  0  0
    2.7807    4.3787    0.8147 H   0  0  0  0  0  0  0  0  0  0  0  0
  1  8  1  0  0  0  0
  2  4  1  0  0  0  0
  2 14  1  0  0  0  0
  2 15  1  0  0  0  0
  3 15  2  0  0  0  0
  3 16  1  0  0  0  0
  4  5  1  0  0  0  0
  4  6  1  0  0  0  0
  4  7  1  0  0  0  0
  5  8  1  0  0  0  0
  5  9  2  0  0  0  0
  6 10  2  0  0  0  0
  6 12  1  0  0  0  0
  7 11  2  0  0  0  0
  7 13  1  0  0  0  0
  8 17  2  0  0  0  0
  9 18  1  0  0  0  0
  9 26  1  0  0  0  0
 10 19  1  0  0  0  0
 10 27  1  0  0  0  0
 11 20  1  0  0  0  0
 11 28  1  0  0  0  0
 12 21  2  0  0  0  0
 12 29  1  0  0  0  0
 13 22  2  0  0  0  0
 13 30  1  0  0  0  0
 14 16  2  0  0  0  0
 14 31  1  0  0  0  0
 15 32  1  0  0  0  0
 16 33  1  0  0  0  0
 17 23  1  0  0  0  0
 17 34  1  0  0  0  0
 18 23  2  0  0  0  0
 18 35  1  0  0  0  0
 19 24  2  0  0  0  0
 19 36  1  0  0  0  0
 20 25  2  0  0  0  0
 20 37  1  0  0  0  0
 21 24  1  0  0  0  0
 21 38  1  0  0  0  0
 22 25  1  0  0  0  0
 22 39  1  0  0  0  0
 23 40  1  0  0  0  0
 24 41  1  0  0  0  0
 25 42  1  0  0  0  0
M  END
> <DATABASE_ID>
DB00257

> <DATABASE_NAME>
drugbank

> <ORIGINAL_SOURCE>
PUBCHEM

> <ORIGINAL_SOURCE_URL>
https://pubchem.ncbi.nlm.nih.gov/rest/pug/compound/inchikey/VNFPBHJOKIVQEB-UHFFFAOYSA-N/SDF?record_type=3d

> <SMILES>
ClC1=CC=CC=C1C(N1C=CN=C1)(C1=CC=CC=C1)C1=CC=CC=C1

> <INCHI_IDENTIFIER>
InChI=1S/C22H17ClN2/c23-21-14-8-7-13-20(21)22(25-16-15-24-17-25,18-9-3-1-4-10-18)19-11-5-2-6-12-19/h1-17H

> <INCHI_KEY>
VNFPBHJOKIVQEB-UHFFFAOYSA-N

> <FORMULA>
C22H17ClN2

> <MOLECULAR_WEIGHT>
344.837

> <EXACT_MASS>
344.108026261

> <JCHEM_ACCEPTOR_COUNT>
1

> <JCHEM_AVERAGE_POLARIZABILITY>
36.248842985286885

> <JCHEM_BIOAVAILABILITY>
1

> <JCHEM_DONOR_COUNT>
0

> <JCHEM_FORMAL_CHARGE>
0

> <JCHEM_GHOSE_FILTER>
0

> <JCHEM_IUPAC>
1-[(2-chlorophenyl)diphenylmethyl]-1H-imidazole

> <ALOGPS_LOGP>
5.48

> <JCHEM_LOGP>
5.8394516706666675

> <ALOGPS_LOGS>
-5.37

> <JCHEM_MDDR_LIKE_RULE>
0

> <JCHEM_NUMBER_OF_RINGS>
4

> <JCHEM_PHYSIOLOGICAL_CHARGE>
0

> <JCHEM_PKA_STRONGEST_BASIC>
6.62392164146992

> <JCHEM_POLAR_SURFACE_AREA>
17.82

> <JCHEM_REFRACTIVITY>
103.76450000000004

> <JCHEM_ROTATABLE_BOND_COUNT>
4

> <JCHEM_RULE_OF_FIVE>
0

> <ALOGPS_SOLUBILITY>
1.47e-03 g/l

> <JCHEM_TRADITIONAL_IUPAC>
clotrimazole

> <JCHEM_VEBER_RULE>
1

$$$$

  Mrv1718012141811582D          

 83 89  0  0  0  0            999 V2000
   -4.8728    0.3152    0.0000 C   0  0  0  0  0  0  0  0  0  0  0  0
   -4.2355   -0.2143    0.0000 N   0  0  0  0  0  0  0  0  0  0  0  0
   -3.5341    0.2265    0.0000 C   0  0  1  0  0  0  0  0  0  0  0  0
   -3.7385    1.0320    0.0000 C   0  0  2  0  0  0  0  0  0  0  0  0
   -4.5646    1.0829    0.0000 C   0  0  1  0  0  0  0  0  0  0  0  0
   -0.8366    0.2097    0.0000 C   0  0  0  0  0  0  0  0  0  0  0  0
   -1.0935    0.9752    0.0000 C   0  0  2  0  0  0  0  0  0  0  0  0
   -1.9013    0.9717    0.0000 C   0  0  2  0  0  0  0  0  0  0  0  0
   -2.1492    0.2006    0.0000 N   0  0  0  0  0  0  0  0  0  0  0  0
   -2.8436   -0.2053    0.0000 C   0  0  0  0  0  0  0  0  0  0  0  0
   -0.1448   -0.1929    0.0000 C   0  0  1  0  0  0  0  0  0  0  0  0
   -0.1489   -1.0005    0.0000 C   0  0  0  0  0  0  0  0  0  0  0  0
   -0.8493   -1.4012    0.0000 N   0  0  0  0  0  0  0  0  0  0  0  0
    0.5496   -1.4075    0.0000 O   0  0  0  0  0  0  0  0  0  0  0  0
   -0.1630   -2.6146    0.0000 C   0  0  2  0  0  0  0  0  0  0  0  0
   -0.8555   -2.2048    0.0000 C   0  0  1  0  0  0  0  0  0  0  0  0
   -1.5571   -2.5968    0.0000 C   0  0  0  0  0  0  0  0  0  0  0  0
   -0.1679   -3.4246    0.0000 O   0  0  0  0  0  0  0  0  0  0  0  0
   -0.8717   -3.8181    0.0000 C   0  0  0  0  0  0  0  0  0  0  0  0
   -1.5704   -3.4095    0.0000 N   0  0  0  0  0  0  0  0  0  0  0  0
   -2.1753   -3.9432    0.0000 C   0  0  1  0  0  0  0  0  0  0  0  0
   -1.8525   -4.6876    0.0000 C   0  0  0  0  0  0  0  0  0  0  0  0
   -1.0473   -4.6076    0.0000 C   0  0  1  0  0  0  0  0  0  0  0  0
   -2.8774   -3.5404    0.0000 C   0  0  0  0  0  0  0  0  0  0  0  0
   -3.5761   -3.9423    0.0000 N   0  0  0  0  0  0  0  0  0  0  0  0
   -4.2750   -3.5404    0.0000 C   0  0  1  0  0  0  0  0  0  0  0  0
   -4.9739   -3.9423    0.0000 C   0  0  1  0  0  0  0  0  0  0  0  0
   -5.6684   -3.5404    0.0000 C   0  0  2  0  0  0  0  0  0  0  0  0
   -6.3673   -3.9423    0.0000 C   0  0  0  0  0  0  0  0  0  0  0  0
   -7.0668   -3.5399    0.0000 C   0  0  0  0  0  0  0  0  0  0  0  0
   -7.7718   -3.9382    0.0000 C   0  0  0  0  0  0  0  0  0  0  0  0
   -7.7752   -4.7485    0.0000 C   0  0  0  0  0  0  0  0  0  0  0  0
   -7.0672   -5.1508    0.0000 C   0  0  0  0  0  0  0  0  0  0  0  0
   -6.3643   -4.7509    0.0000 C   0  0  0  0  0  0  0  0  0  0  0  0
   -8.4680   -5.1430    0.0000 O   0  0  0  0  0  0  0  0  0  0  0  0
   -2.8816   -2.7327    0.0000 O   0  0  0  0  0  0  0  0  0  0  0  0
   -5.6725   -2.7327    0.0000 O   0  0  0  0  0  0  0  0  0  0  0  0
   -4.9779   -4.7495    0.0000 O   0  0  0  0  0  0  0  0  0  0  0  0
   -4.9360   -0.6154    0.0000 C   0  0  0  0  0  0  0  0  0  0  0  0
   -5.6350   -0.2137    0.0000 C   0  0  2  0  0  0  0  0  0  0  0  0
   -6.3297   -0.6154    0.0000 C   0  0  1  0  0  0  0  0  0  0  0  0
   -4.9401   -1.4270    0.0000 O   0  0  0  0  0  0  0  0  0  0  0  0
   -2.2998    1.6317    0.0000 O   0  0  0  0  0  0  0  0  0  0  0  0
   -0.8017    1.5648    0.0000 O   0  0  0  0  0  0  0  0  0  0  0  0
   -0.3498   -5.0134    0.0000 O   0  0  0  0  0  0  0  0  0  0  0  0
   -4.2791   -2.7327    0.0000 C   0  0  0  0  0  0  0  0  0  0  0  0
   -5.6391   -1.8134    0.0000 N   0  0  0  0  0  0  0  0  0  0  0  0
   -3.5802   -2.3227    0.0000 O   0  0  0  0  0  0  0  0  0  0  0  0
   -2.8419   -1.0130    0.0000 O   0  0  0  0  0  0  0  0  0  0  0  0
   -5.6391    0.5941    0.0000 H   0  0  0  0  0  0  0  0  0  0  0  0
   -2.2622   -2.1930    0.0000 O   0  0  0  0  0  0  0  0  0  0  0  0
   -3.2100    1.6702    0.0000 O   0  0  0  0  0  0  0  0  0  0  0  0
   -5.0073    1.7832    0.0000 C   0  0  0  0  0  0  0  0  0  0  0  0
    0.5580   -2.2065    0.0000 C   0  0  0  0  0  0  0  0  0  0  0  0
   -7.0474   -0.2016    0.0000 C   0  0  0  0  0  0  0  0  0  0  0  0
   -6.3292   -1.4438    0.0000 O   0  0  0  0  0  0  0  0  0  0  0  0
    0.5745    0.2182    0.0000 N   0  0  0  0  0  0  0  0  0  0  0  0
    1.2901   -0.1992    0.0000 C   0  0  0  0  0  0  0  0  0  0  0  0
    2.0094    0.2119    0.0000 C   0  0  0  0  0  0  0  0  0  0  0  0
    1.2865   -1.0276    0.0000 O   0  0  0  0  0  0  0  0  0  0  0  0
    2.7235   -0.2078    0.0000 C   0  0  0  0  0  0  0  0  0  0  0  0
    3.4424    0.2027    0.0000 C   0  0  0  0  0  0  0  0  0  0  0  0
    3.4465    1.0320    0.0000 C   0  0  0  0  0  0  0  0  0  0  0  0
    2.7257    1.4493    0.0000 C   0  0  0  0  0  0  0  0  0  0  0  0
    2.0098    1.0366    0.0000 C   0  0  0  0  0  0  0  0  0  0  0  0
    4.1611    1.4438    0.0000 C   0  0  0  0  0  0  0  0  0  0  0  0
    4.8776    1.0256    0.0000 C   0  0  0  0  0  0  0  0  0  0  0  0
    5.5959    1.4369    0.0000 C   0  0  0  0  0  0  0  0  0  0  0  0
    5.5988    2.2664    0.0000 C   0  0  0  0  0  0  0  0  0  0  0  0
    4.8775    2.6826    0.0000 C   0  0  0  0  0  0  0  0  0  0  0  0
    4.1623    2.2688    0.0000 C   0  0  0  0  0  0  0  0  0  0  0  0
    6.3166    2.6755    0.0000 C   0  0  0  0  0  0  0  0  0  0  0  0
    7.0339    2.2584    0.0000 C   0  0  0  0  0  0  0  0  0  0  0  0
    7.7516    2.6708    0.0000 C   0  0  0  0  0  0  0  0  0  0  0  0
    7.7534    3.5001    0.0000 C   0  0  0  0  0  0  0  0  0  0  0  0
    7.0316    3.9153    0.0000 C   0  0  0  0  0  0  0  0  0  0  0  0
    6.3169    3.5008    0.0000 C   0  0  0  0  0  0  0  0  0  0  0  0
    8.4680    3.9224    0.0000 O   0  0  0  0  0  0  0  0  0  0  0  0
    8.4515    4.7508    0.0000 C   0  0  0  0  0  0  0  0  0  0  0  0
    7.7262    5.1508    0.0000 C   0  0  0  0  0  0  0  0  0  0  0  0
    7.0169    4.7227    0.0000 C   0  0  0  0  0  0  0  0  0  0  0  0
    6.2914    5.1228    0.0000 C   0  0  0  0  0  0  0  0  0  0  0  0
    5.5821    4.6944    0.0000 C   0  0  0  0  0  0  0  0  0  0  0  0
 16 13  1  1  0  0  0
 15 16  1  0  0  0  0
 15 18  1  1  0  0  0
 16 17  1  0  0  0  0
  8 43  1  6  0  0  0
 17 20  1  0  0  0  0
  7 44  1  6  0  0  0
 19 20  1  0  0  0  0
  6  7  1  0  0  0  0
 23 45  1  6  0  0  0
 20 21  1  0  0  0  0
 26 46  1  0  0  0  0
 21 22  1  0  0  0  0
 22 23  1  0  0  0  0
 46 48  2  0  0  0  0
 23 19  1  0  0  0  0
 10 49  2  0  0  0  0
  7  8  1  0  0  0  0
 21 24  1  1  0  0  0
 40 50  1  6  0  0  0
  8  9  1  0  0  0  0
 17 51  2  0  0  0  0
 47 46  1  0  0  0  0
  4 52  1  6  0  0  0
  2  3  1  0  0  0  0
  5 53  1  6  0  0  0
  3  4  1  0  0  0  0
 15 54  1  0  0  0  0
  4  5  1  0  0  0  0
 41 55  1  0  0  0  0
  5  1  1  0  0  0  0
 41 56  1  6  0  0  0
  1  2  1  0  0  0  0
 11 57  1  6  0  0  0
 24 25  1  0  0  0  0
 57 58  1  0  0  0  0
 26 25  1  1  0  0  0
 58 59  1  0  0  0  0
 26 27  1  0  0  0  0
 58 60  2  0  0  0  0
 27 28  1  0  0  0  0
 59 61  2  0  0  0  0
 28 29  1  0  0  0  0
 61 62  1  0  0  0  0
 29 30  1  0  0  0  0
 62 63  2  0  0  0  0
 29 34  2  0  0  0  0
 63 64  1  0  0  0  0
 30 31  2  0  0  0  0
 64 65  2  0  0  0  0
 65 59  1  0  0  0  0
 31 32  1  0  0  0  0
 32 33  2  0  0  0  0
 66 67  2  0  0  0  0
 33 34  1  0  0  0  0
 67 68  1  0  0  0  0
 32 35  1  0  0  0  0
 68 69  2  0  0  0  0
 24 36  2  0  0  0  0
 69 70  1  0  0  0  0
  3 10  1  1  0  0  0
 70 71  2  0  0  0  0
 71 66  1  0  0  0  0
 63 66  1  0  0  0  0
 28 37  1  6  0  0  0
 10  9  1  0  0  0  0
 72 73  2  0  0  0  0
 27 38  1  6  0  0  0
 73 74  1  0  0  0  0
  2 39  1  0  0  0  0
 74 75  2  0  0  0  0
  6 11  1  0  0  0  0
 75 76  1  0  0  0  0
 39 40  1  0  0  0  0
 76 77  2  0  0  0  0
 77 72  1  0  0  0  0
 69 72  1  0  0  0  0
 40 41  1  0  0  0  0
 75 78  1  0  0  0  0
 11 12  1  0  0  0  0
 78 79  1  0  0  0  0
 12 13  1  0  0  0  0
 79 80  1  0  0  0  0
 39 42  2  0  0  0  0
 80 81  1  0  0  0  0
 40 47  1  0  0  0  0
 81 82  1  0  0  0  0
 12 14  2  0  0  0  0
 82 83  1  0  0  0  0
M  END
> <DATABASE_ID>
DB00362

> <DATABASE_NAME>
drugbank

> <SMILES>
[H][C@]1(NC(=O)[C@@H](NC(=O)[C@@H]2C[C@@H](O)CN2C(=O)[C@@H](NC(=O)[C@H](C[C@@H](O)[C@@H](O)NC(=O)[C@@H]2[C@@H](O)[C@@H](C)CN2C1=O)NC(=O)C1=CC=C(C=C1)C1=CC=C(C=C1)C1=CC=C(OCCCCC)C=C1)[C@@H](C)O)[C@H](O)[C@@H](O)C1=CC=C(O)C=C1)[C@@H](C)O

> <INCHI_IDENTIFIER>
InChI=1S/C58H73N7O17/c1-5-6-7-24-82-40-22-18-35(19-23-40)33-10-8-32(9-11-33)34-12-14-37(15-13-34)51(74)59-41-26-43(70)54(77)63-56(79)47-48(71)29(2)27-65(47)58(81)45(31(4)67)61-55(78)46(50(73)49(72)36-16-20-38(68)21-17-36)62-53(76)42-25-39(69)28-64(42)57(80)44(30(3)66)60-52(41)75/h8-23,29-31,39,41-50,54,66-73,77H,5-7,24-28H2,1-4H3,(H,59,74)(H,60,75)(H,61,78)(H,62,76)(H,63,79)/t29-,30+,31+,39+,41-,42-,43+,44-,45-,46-,47-,48-,49-,50-,54+/m0/s1

> <INCHI_KEY>
JHVAMHSQVVQIOT-MFAJLEFUSA-N

> <FORMULA>
C58H73N7O17

> <MOLECULAR_WEIGHT>
1140.2369

> <EXACT_MASS>
1139.506293945

> <JCHEM_ACCEPTOR_COUNT>
17

> <JCHEM_ATOM_COUNT>
155

> <JCHEM_AVERAGE_POLARIZABILITY>
122.77898704189768

> <JCHEM_BIOAVAILABILITY>
0

> <JCHEM_DONOR_COUNT>
14

> <JCHEM_FORMAL_CHARGE>
0

> <JCHEM_GHOSE_FILTER>
0

> <JCHEM_IUPAC>
N-[(3S,6S,9S,11R,15S,18S,20R,21R,24S,25S,26S)-6-[(1S,2S)-1,2-dihydroxy-2-(4-hydroxyphenyl)ethyl]-11,20,21,25-tetrahydroxy-3,15-bis[(1R)-1-hydroxyethyl]-26-methyl-2,5,8,14,17,23-hexaoxo-1,4,7,13,16,22-hexaazatricyclo[22.3.0.0^{9,13}]heptacosan-18-yl]-4-[4'-(pentyloxy)-[1,1'-biphenyl]-4-yl]benzamide

> <ALOGPS_LOGP>
1.87

> <JCHEM_LOGP>
-1.4572171509999994

> <ALOGPS_LOGS>
-4.31

> <JCHEM_MDDR_LIKE_RULE>
1

> <JCHEM_NUMBER_OF_RINGS>
7

> <JCHEM_PHYSIOLOGICAL_CHARGE>
0

> <JCHEM_PKA>
11.029550725960197

> <JCHEM_PKA_STRONGEST_ACIDIC>
9.457179266012721

> <JCHEM_PKA_STRONGEST_BASIC>
-3.484584020108345

> <JCHEM_POLAR_SURFACE_AREA>
377.41999999999985

> <JCHEM_REFRACTIVITY>
292.29319999999984

> <JCHEM_ROTATABLE_BOND_COUNT>
14

> <JCHEM_RULE_OF_FIVE>
0

> <ALOGPS_SOLUBILITY>
5.64e-02 g/l

> <JCHEM_TRADITIONAL_IUPAC>
N-[(3S,6S,9S,11R,15S,18S,20R,21R,24S,25S,26S)-6-[(1S,2S)-1,2-dihydroxy-2-(4-hydroxyphenyl)ethyl]-11,20,21,25-tetrahydroxy-3,15-bis[(1R)-1-hydroxyethyl]-26-methyl-2,5,8,14,17,23-hexaoxo-1,4,7,13,16,22-hexaazatricyclo[22.3.0.0^{9,13}]heptacosan-18-yl]-4-[4'-(pentyloxy)-[1,1'-biphenyl]-4-yl]benzamide

> <JCHEM_VEBER_RULE>
0

> <DRUGBANK_ID>
DB00362

> <SECONDARY_ACCESSION_NUMBERS>
APRD01301

> <DRUG_GROUPS>
approved; investigational

> <GENERIC_NAME>
Anidulafungin

> <SYNONYMS>
Anidulafungin; Anidulafungina; Anidulafungine; Anidulafunginum

> <PRODUCTS>
Eraxis; Gd-anidulafungin

> <INTERNATIONAL_BRANDS>
Ecalta

$$$$
441140
  -OEChem-10051719143D

 41 43  0     1  0  0  0  0  0999 V2000
    2.4502   -2.9483   -0.5177 Cl  0  0  0  0  0  0  0  0  0  0  0  0
   -0.1698   -1.3861   -0.3692 O   0  0  0  0  0  0  0  0  0  0  0  0
   -1.6882   -1.4171    1.9466 O   0  0  0  0  0  0  0  0  0  0  0  0
   -1.0924    1.9529    0.4115 O   0  0  0  0  0  0  0  0  0  0  0  0
   -5.3769    0.1201   -0.5155 O   0  0  0  0  0  0  0  0  0  0  0  0
    1.7229    2.7567    0.8454 O   0  0  0  0  0  0  0  0  0  0  0  0
    4.6149   -0.9787    0.1798 O   0  0  0  0  0  0  0  0  0  0  0  0
   -1.2526   -0.4149   -0.2717 C   0  0  2  0  0  0  0  0  0  0  0  0
   -1.9518   -0.3264   -1.6485 C   0  0  1  0  0  0  0  0  0  0  0  0
   -3.2528    0.4762   -1.5661 C   0  0  0  0  0  0  0  0  0  0  0  0
   -0.5769    0.8817    0.1565 C   0  0  0  0  0  0  0  0  0  0  0  0
   -2.2220   -0.8312    0.8113 C   0  0  0  0  0  0  0  0  0  0  0  0
   -1.0583    0.2220   -2.7663 C   0  0  0  0  0  0  0  0  0  0  0  0
    0.8373    0.6211    0.2231 C   0  0  0  0  0  0  0  0  0  0  0  0
    0.9936   -0.7114   -0.0976 C   0  0  0  0  0  0  0  0  0  0  0  0
   -4.1576   -0.0349   -0.4673 C   0  0  0  0  0  0  0  0  0  0  0  0
   -3.5486   -0.6786    0.7210 C   0  0  0  0  0  0  0  0  0  0  0  0
    1.8952    1.4502    0.5330 C   0  0  0  0  0  0  0  0  0  0  0  0
    2.2491   -1.2854   -0.1212 C   0  0  0  0  0  0  0  0  0  0  0  0
    3.1704    0.8838    0.5109 C   0  0  0  0  0  0  0  0  0  0  0  0
    3.3466   -0.4741    0.1860 C   0  0  0  0  0  0  0  0  0  0  0  0
   -2.0197   -0.6661    3.0962 C   0  0  0  0  0  0  0  0  0  0  0  0
    1.7568    3.6984   -0.2301 C   0  0  0  0  0  0  0  0  0  0  0  0
    5.3308   -0.9098   -1.0503 C   0  0  0  0  0  0  0  0  0  0  0  0
   -2.2103   -1.3541   -1.9470 H   0  0  0  0  0  0  0  0  0  0  0  0
   -3.7943    0.3867   -2.5153 H   0  0  0  0  0  0  0  0  0  0  0  0
   -3.0621    1.5395   -1.3847 H   0  0  0  0  0  0  0  0  0  0  0  0
   -0.7640    1.2595   -2.5783 H   0  0  0  0  0  0  0  0  0  0  0  0
   -0.1504   -0.3783   -2.8801 H   0  0  0  0  0  0  0  0  0  0  0  0
   -1.5878    0.1976   -3.7252 H   0  0  0  0  0  0  0  0  0  0  0  0
   -4.2320   -1.0120    1.4938 H   0  0  0  0  0  0  0  0  0  0  0  0
    4.0371    1.4968    0.7486 H   0  0  0  0  0  0  0  0  0  0  0  0
   -1.3625   -0.9931    3.9085 H   0  0  0  0  0  0  0  0  0  0  0  0
   -3.0484   -0.8557    3.4197 H   0  0  0  0  0  0  0  0  0  0  0  0
   -1.8534    0.4085    2.9552 H   0  0  0  0  0  0  0  0  0  0  0  0
    0.9913    3.4621   -0.9759 H   0  0  0  0  0  0  0  0  0  0  0  0
    2.7468    3.7052   -0.6967 H   0  0  0  0  0  0  0  0  0  0  0  0
    1.5540    4.6918    0.1790 H   0  0  0  0  0  0  0  0  0  0  0  0
    5.5216    0.1337   -1.3203 H   0  0  0  0  0  0  0  0  0  0  0  0
    4.7825   -1.4087   -1.8553 H   0  0  0  0  0  0  0  0  0  0  0  0
    6.2908   -1.4160   -0.9167 H   0  0  0  0  0  0  0  0  0  0  0  0
  1 19  1  0  0  0  0
  2  8  1  0  0  0  0
  2 15  1  0  0  0  0
  3 12  1  0  0  0  0
  3 22  1  0  0  0  0
  4 11  2  0  0  0  0
  5 16  2  0  0  0  0
  6 18  1  0  0  0  0
  6 23  1  0  0  0  0
  7 21  1  0  0  0  0
  7 24  1  0  0  0  0
  8  9  1  0  0  0  0
  8 11  1  0  0  0  0
  8 12  1  0  0  0  0
  9 10  1  0  0  0  0
  9 13  1  0  0  0  0
  9 25  1  0  0  0  0
 10 16  1  0  0  0  0
 10 26  1  0  0  0  0
 10 27  1  0  0  0  0
 11 14  1  0  0  0  0
 12 17  2  0  0  0  0
 13 28  1  0  0  0  0
 13 29  1  0  0  0  0
 13 30  1  0  0  0  0
 14 15  2  0  0  0  0
 14 18  1  0  0  0  0
 15 19  1  0  0  0  0
 16 17  1  0  0  0  0
 17 31  1  0  0  0  0
 18 20  2  0  0  0  0
 19 21  2  0  0  0  0
 20 21  1  0  0  0  0
 20 32  1  0  0  0  0
 22 33  1  0  0  0  0
 22 34  1  0  0  0  0
 22 35  1  0  0  0  0
 23 36  1  0  0  0  0
 23 37  1  0  0  0  0
 23 38  1  0  0  0  0
 24 39  1  0  0  0  0
 24 40  1  0  0  0  0
 24 41  1  0  0  0  0
M  END
> <DATABASE_ID>
DB00400

> <DATABASE_NAME>
drugbank

> <ORIGINAL_SOURCE>
PUBCHEM

> <ORIGINAL_SOURCE_URL>
https://pubchem.ncbi.nlm.nih.gov/rest/pug/compound/inchikey/DDUHZTYCFQRHIY-RBHXEPJQSA-N/SDF?record_type=3d

> <SMILES>
COC1=CC(OC)=C(Cl)C2=C1C(=O)[C@]1(O2)[C@H](C)CC(=O)C=C1OC

> <INCHI_IDENTIFIER>
InChI=1S/C17H17ClO6/c1-8-5-9(19)6-12(23-4)17(8)16(20)13-10(21-2)7-11(22-3)14(18)15(13)24-17/h6-8H,5H2,1-4H3/t8-,17+/m1/s1

> <INCHI_KEY>
DDUHZTYCFQRHIY-RBHXEPJQSA-N

> <FORMULA>
C17H17ClO6

> <MOLECULAR_WEIGHT>
352.766

> <EXACT_MASS>
352.071365983

> <JCHEM_ACCEPTOR_COUNT>
6

> <JCHEM_AVERAGE_POLARIZABILITY>
34.24576060438774

> <JCHEM_BIOAVAILABILITY>
1

> <JCHEM_DONOR_COUNT>
0

> <JCHEM_FORMAL_CHARGE>
0

> <JCHEM_GHOSE_FILTER>
1

> <JCHEM_IUPAC>
(2S,6'R)-7-chloro-2',4,6-trimethoxy-6'-methyl-3H-spiro[1-benzofuran-2,1'-cyclohexan]-2'-ene-3,4'-dione

> <ALOGPS_LOGP>
2.71

> <JCHEM_LOGP>
2.172137458333333

> <ALOGPS_LOGS>
-3.84

> <JCHEM_MDDR_LIKE_RULE>
0

> <JCHEM_NUMBER_OF_RINGS>
3

> <JCHEM_PHYSIOLOGICAL_CHARGE>
0

> <JCHEM_PKA_STRONGEST_ACIDIC>
17.68867051547463

> <JCHEM_PKA_STRONGEST_BASIC>
-4.322861287850263

> <JCHEM_POLAR_SURFACE_AREA>
71.06

> <JCHEM_REFRACTIVITY>
87.8459

> <JCHEM_ROTATABLE_BOND_COUNT>
3

> <JCHEM_RULE_OF_FIVE>
1

> <ALOGPS_SOLUBILITY>
5.04e-02 g/l

> <JCHEM_TRADITIONAL_IUPAC>
griseofulvin

> <JCHEM_VEBER_RULE>
0

$$$$

  Mrv0541 02231214442D          

 77 80  0  0  0  0            999 V2000
   -0.7403    3.8598    0.0000 C   0  0  1  0  0  0  0  0  0  0  0  0
   -1.5653    3.8598    0.0000 C   0  0  2  0  0  0  0  0  0  0  0  0
   -1.9778    3.1454    0.0000 N   0  0  0  0  0  0  0  0  0  0  0  0
   -0.3278    3.1454    0.0000 C   0  0  0  0  0  0  0  0  0  0  0  0
   -2.8028    3.1454    0.0000 C   0  0  0  0  0  0  0  0  0  0  0  0
   -0.7403    2.4309    0.0000 C   0  0  1  0  0  0  0  0  0  0  0  0
   -0.3278    1.7164    0.0000 C   0  0  0  0  0  0  0  0  0  0  0  0
    0.9096    1.0019    0.0000 O   0  0  0  0  0  0  0  0  0  0  0  0
    0.4971    0.2874    0.0000 C   0  0  1  0  0  0  0  0  0  0  0  0
   -0.3279    0.2874    0.0000 C   0  0  2  0  0  0  0  0  0  0  0  0
    0.9096   -0.4271    0.0000 C   0  0  0  0  0  0  0  0  0  0  0  0
   -3.2153    3.8598    0.0000 O   0  0  0  0  0  0  0  0  0  0  0  0
   -1.9778    4.5743    0.0000 N   0  0  0  0  0  0  0  0  0  0  0  0
   -0.3278    4.5743    0.0000 O   0  0  0  0  0  0  0  0  0  0  0  0
   -0.7403    1.0019    0.0000 N   0  0  0  0  0  0  0  0  0  0  0  0
    0.4972    1.7164    0.0000 O   0  0  0  0  0  0  0  0  0  0  0  0
   -0.7404   -0.4270    0.0000 C   0  0  0  0  0  0  0  0  0  0  0  0
   -1.5654   -0.4270    0.0000 O   0  0  0  0  0  0  0  0  0  0  0  0
   -0.3279   -1.1415    0.0000 N   0  0  0  0  0  0  0  0  0  0  0  0
    0.4419    2.6064    0.0000 N   0  0  0  0  0  0  0  0  0  0  0  0
   -2.8028    4.5743    0.0000 C   0  0  0  0  0  0  0  0  0  0  0  0
   -3.2153    5.2888    0.0000 C   0  0  0  0  0  0  0  0  0  0  0  0
   -4.0403    5.2888    0.0000 N   0  0  0  0  0  0  0  0  0  0  0  0
   -3.2149    2.5830    0.0000 C   0  0  2  0  0  0  0  0  0  0  0  0
   -3.9538    2.9498    0.0000 C   0  0  2  0  0  0  0  0  0  0  0  0
   -4.5310    2.3603    0.0000 C   0  0  0  0  0  0  0  0  0  0  0  0
   -4.1488    1.6293    0.0000 C   0  0  0  0  0  0  0  0  0  0  0  0
   -3.3354    1.7668    0.0000 N   0  0  0  0  0  0  0  0  0  0  0  0
   -4.0914    3.7632    0.0000 O   0  0  0  0  0  0  0  0  0  0  0  0
   -0.6429   -1.9040    0.0000 C   0  0  1  0  0  0  0  0  0  0  0  0
   -0.0151   -2.4392    0.0000 C   0  0  0  0  0  0  0  0  0  0  0  0
    0.6879   -2.0075    0.0000 C   0  0  2  0  0  0  0  0  0  0  0  0
    0.4946   -1.2055    0.0000 C   0  0  0  0  0  0  0  0  0  0  0  0
    1.4504   -2.3225    0.0000 O   0  0  0  0  0  0  0  0  0  0  0  0
   -1.4449   -2.0974    0.0000 C   0  0  0  0  0  0  0  0  0  0  0  0
   -1.6785   -2.8886    0.0000 O   0  0  0  0  0  0  0  0  0  0  0  0
   -2.0134   -1.4994    0.0000 N   0  0  0  0  0  0  0  0  0  0  0  0
   -3.0734    0.9676    0.0000 C   0  0  0  0  0  0  0  0  0  0  0  0
   -3.4538    0.2356    0.0000 C   0  0  1  0  0  0  0  0  0  0  0  0
   -2.2492    1.0042    0.0000 O   0  0  0  0  0  0  0  0  0  0  0  0
   -3.0101   -0.4599    0.0000 N   0  0  0  0  0  0  0  0  0  0  0  0
   -3.3905   -1.1920    0.0000 C   0  0  0  0  0  0  0  0  0  0  0  0
   -2.9468   -1.8875    0.0000 C   0  0  2  0  0  0  0  0  0  0  0  0
   -4.2147   -1.2285    0.0000 O   0  0  0  0  0  0  0  0  0  0  0  0
   -3.1941   -2.6745    0.0000 C   0  0  1  0  0  0  0  0  0  0  0  0
   -3.9994   -2.8538    0.0000 C   0  0  2  0  0  0  0  0  0  0  0  0
   -4.2467   -3.6409    0.0000 C   0  0  0  0  0  0  0  0  0  0  0  0
   -2.6362   -3.2822    0.0000 O   0  0  0  0  0  0  0  0  0  0  0  0
   -4.5573   -2.2461    0.0000 O   0  0  0  0  0  0  0  0  0  0  0  0
   -5.0694   -3.5790    0.0000 C   0  0  0  0  0  0  0  0  0  0  0  0
   -5.5344   -4.2605    0.0000 C   0  0  0  0  0  0  0  0  0  0  0  0
   -5.1766   -5.0039    0.0000 C   0  0  0  0  0  0  0  0  0  0  0  0
   -4.3540   -5.0658    0.0000 C   0  0  0  0  0  0  0  0  0  0  0  0
   -3.8890   -4.3843    0.0000 C   0  0  0  0  0  0  0  0  0  0  0  0
   -5.6416   -5.6855    0.0000 O   0  0  0  0  0  0  0  0  0  0  0  0
   -4.2780    0.1990    0.0000 C   0  0  1  0  0  0  0  0  0  0  0  0
   -4.7218    0.8945    0.0000 C   0  0  0  0  0  0  0  0  0  0  0  0
   -5.5460    0.8580    0.0000 C   0  0  0  0  0  0  0  0  0  0  0  0
   -5.9897    1.5535    0.0000 N   0  0  0  0  0  0  0  0  0  0  0  0
   -4.6585   -0.5330    0.0000 O   0  0  0  0  0  0  0  0  0  0  0  0
    5.4148    3.0496    0.0000 C   0  0  0  0  0  0  0  0  0  0  0  0
    4.7003    2.6371    0.0000 C   0  0  0  0  0  0  0  0  0  0  0  0
    4.7003    1.8121    0.0000 C   0  0  0  0  0  0  0  0  0  0  0  0
    5.4148    1.3996    0.0000 C   0  0  0  0  0  0  0  0  0  0  0  0
    6.1292    1.8121    0.0000 C   0  0  0  0  0  0  0  0  0  0  0  0
    6.1292    2.6371    0.0000 C   0  0  0  0  0  0  0  0  0  0  0  0
    3.9858    3.0496    0.0000 C   0  0  0  0  0  0  0  0  0  0  0  0
    3.2714    2.6371    0.0000 C   0  0  0  0  0  0  0  0  0  0  0  0
    3.2714    1.8121    0.0000 C   0  0  0  0  0  0  0  0  0  0  0  0
    3.9858    1.3996    0.0000 C   0  0  0  0  0  0  0  0  0  0  0  0
    2.5569    3.0496    0.0000 C   0  0  0  0  0  0  0  0  0  0  0  0
    1.8424    2.6371    0.0000 C   0  0  0  0  0  0  0  0  0  0  0  0
    2.5569    1.3996    0.0000 C   0  0  0  0  0  0  0  0  0  0  0  0
    1.1280    3.0496    0.0000 C   0  0  0  0  0  0  0  0  0  0  0  0
    5.4148    0.5746    0.0000 C   0  0  0  0  0  0  0  0  0  0  0  0
    3.9858    0.5746    0.0000 C   0  0  0  0  0  0  0  0  0  0  0  0
    1.1280    3.8746    0.0000 O   0  0  0  0  0  0  0  0  0  0  0  0
  1  2  1  0  0  0  0
  1  4  1  0  0  0  0
  2  3  1  0  0  0  0
  6  4  1  6  0  0  0
  3  5  1  0  0  0  0
  6  7  1  0  0  0  0
  9  8  1  6  0  0  0
  9 11  1  0  0  0  0
  9 10  1  0  0  0  0
  5 12  2  0  0  0  0
  2 13  1  6  0  0  0
  1 14  1  6  0  0  0
  7 15  1  0  0  0  0
 10 15  1  0  0  0  0
  7 16  2  0  0  0  0
 10 17  1  1  0  0  0
 17 18  2  0  0  0  0
 17 19  1  0  0  0  0
  6 20  1  1  0  0  0
 13 21  1  0  0  0  0
 21 22  1  0  0  0  0
 22 23  1  0  0  0  0
 24 28  1  0  0  0  0
 24 25  1  0  0  0  0
 25 26  1  0  0  0  0
 26 27  1  0  0  0  0
 27 28  1  0  0  0  0
 25 29  1  6  0  0  0
 24  5  1  1  0  0  0
 30 19  1  0  0  0  0
 19 33  1  0  0  0  0
 30 31  1  0  0  0  0
 32 31  1  0  0  0  0
 32 33  1  0  0  0  0
 32 34  1  6  0  0  0
 30 35  1  1  0  0  0
 35 36  2  0  0  0  0
 35 37  1  0  0  0  0
 28 38  1  0  0  0  0
 38 40  2  0  0  0  0
 39 41  1  0  0  0  0
 41 42  1  0  0  0  0
 42 44  2  0  0  0  0
 43 37  1  0  0  0  0
 43 42  1  1  0  0  0
 43 45  1  0  0  0  0
 45 46  1  0  0  0  0
 46 47  1  0  0  0  0
 45 48  1  6  0  0  0
 46 49  1  6  0  0  0
 47 50  2  0  0  0  0
 47 54  1  0  0  0  0
 50 51  1  0  0  0  0
 51 52  2  0  0  0  0
 52 53  1  0  0  0  0
 53 54  2  0  0  0  0
 52 55  1  0  0  0  0
 39 56  1  0  0  0  0
 56 57  1  0  0  0  0
 57 58  1  0  0  0  0
 58 59  1  0  0  0  0
 56 60  1  6  0  0  0
 39 38  1  1  0  0  0
 61 62  1  0  0  0  0
 61 66  1  0  0  0  0
 67 62  1  0  0  0  0
 63 64  1  0  0  0  0
 70 63  1  0  0  0  0
 64 65  1  0  0  0  0
 64 75  1  0  0  0  0
 65 66  1  0  0  0  0
 67 68  1  0  0  0  0
 71 68  1  0  0  0  0
 69 70  1  0  0  0  0
 73 69  1  0  0  0  0
 70 76  1  0  0  0  0
 71 72  1  0  0  0  0
 74 72  1  0  0  0  0
 74 77  2  0  0  0  0
 20 74  1  0  0  0  0
M  END
> <DATABASE_ID>
DB00520

> <DATABASE_NAME>
drugbank

> <SMILES>
CCC(C)CC(C)CCCCCCCCC(=O)N[C@H]1C[C@@H](O)[C@@H](NCCN)NC(=O)[C@@H]2[C@@H](O)CCN2C(=O)[C@@H](NC(=O)[C@@H](NC(=O)[C@@H]2C[C@@H](O)CN2C(=O)[C@@H](NC1=O)[C@@H](C)O)[C@H](O)[C@@H](O)C1=CC=C(O)C=C1)[C@H](O)CCN

> <INCHI_IDENTIFIER>
InChI=1S/C52H88N10O15/c1-5-28(2)24-29(3)12-10-8-6-7-9-11-13-39(69)56-34-26-38(68)46(55-22-21-54)60-50(75)43-37(67)19-23-61(43)52(77)41(36(66)18-20-53)58-49(74)42(45(71)44(70)31-14-16-32(64)17-15-31)59-48(73)35-25-33(65)27-62(35)51(76)40(30(4)63)57-47(34)72/h14-17,28-30,33-38,40-46,55,63-68,70-71H,5-13,18-27,53-54H2,1-4H3,(H,56,69)(H,57,72)(H,58,74)(H,59,73)(H,60,75)/t28?,29?,30-,33-,34?,35+,36-,37+,38-,40+,41+,42+,43+,44+,45+,46+/m1/s1

> <INCHI_KEY>
JYIKNQVWKBUSNH-QWDBRQCVSA-N

> <FORMULA>
C52H88N10O15

> <MOLECULAR_WEIGHT>
1093.3131

> <EXACT_MASS>
1092.643062196

> <JCHEM_ACCEPTOR_COUNT>
18

> <JCHEM_AVERAGE_POLARIZABILITY>
117.51790506775998

> <JCHEM_BIOAVAILABILITY>
0

> <JCHEM_DONOR_COUNT>
16

> <JCHEM_FORMAL_CHARGE>
0

> <JCHEM_GHOSE_FILTER>
0

> <JCHEM_IUPAC>
N-[(3S,6S,9S,11R,15S,18S,20R,21S,24S,25S)-3-[(1R)-3-amino-1-hydroxypropyl]-21-[(2-aminoethyl)amino]-6-[(1S,2S)-1,2-dihydroxy-2-(4-hydroxyphenyl)ethyl]-11,20,25-trihydroxy-15-[(1R)-1-hydroxyethyl]-2,5,8,14,17,23-hexaoxo-1,4,7,13,16,22-hexaazatricyclo[22.3.0.0⁹,¹³]heptacosan-18-yl]-10,12-dimethyltetradecanamide

> <ALOGPS_LOGP>
0.17

> <JCHEM_LOGP>
-4.824428610646292

> <ALOGPS_LOGS>
-3.47

> <JCHEM_MDDR_LIKE_RULE>
1

> <JCHEM_NUMBER_OF_RINGS>
4

> <JCHEM_PHYSIOLOGICAL_CHARGE>
2

> <JCHEM_PKA>
11.287310993586567

> <JCHEM_PKA_STRONGEST_ACIDIC>
8.752074792557577

> <JCHEM_PKA_STRONGEST_BASIC>
9.75694406706686

> <JCHEM_POLAR_SURFACE_AREA>
412.03000000000003

> <JCHEM_REFRACTIVITY>
278.7797

> <JCHEM_ROTATABLE_BOND_COUNT>
23

> <JCHEM_RULE_OF_FIVE>
0

> <ALOGPS_SOLUBILITY>
3.67e-01 g/l

> <JCHEM_TRADITIONAL_IUPAC>
caspofungin

> <JCHEM_VEBER_RULE>
0

> <DRUGBANK_ID>
DB00520

> <SECONDARY_ACCESSION_NUMBERS>
APRD00199

> <DRUG_GROUPS>
approved

> <GENERIC_NAME>
Caspofungin

> <SYNONYMS>
(4R,5S)-5-((2-Aminoethyl)amino)-N(sup 2)-(10,12-dimethyltetradecanoyl)-4-hydroxy-L-ornithyl-L-threonyl-trans-4-hydroxy-L-prolyl-(S)-4-hydroxy-4-(p-hydroxyphenyl)-L-threonyl-threo-3-hydroxy-L-ornithyl-trans-3-hydroxy-L-proline cyclic (6-1)-peptide; Caspofungin; Caspofungina

> <PRODUCTS>
Cancidas; Caspofungin Acetate; Caspofungin Acetate for Injection; Caspofungin Powder for Injection; Caspofungin acetate; Caspofungin for Injection

> <SALTS>
Caspofungin acetate

$$$$
5510
  -OEChem-10051719173D

 39 41  0     0  0  0  0  0  0999 V2000
   -2.4763   -3.4228    1.2925 S   0  0  0  0  0  0  0  0  0  0  0  0
   -0.7762   -1.4178    1.3389 O   0  0  0  0  0  0  0  0  0  0  0  0
   -2.4291   -1.2537   -0.4240 N   0  0  0  0  0  0  0  0  0  0  0  0
    2.4469    0.1672    0.5702 C   0  0  0  0  0  0  0  0  0  0  0  0
    2.8700   -0.6266   -0.5224 C   0  0  0  0  0  0  0  0  0  0  0  0
   -2.3539    0.1882   -0.4963 C   0  0  0  0  0  0  0  0  0  0  0  0
    0.4138   -1.1594    0.7311 C   0  0  0  0  0  0  0  0  0  0  0  0
    1.2161   -0.1125    1.1861 C   0  0  0  0  0  0  0  0  0  0  0  0
   -2.3567    0.8967    0.6766 C   0  0  0  0  0  0  0  0  0  0  0  0
   -2.2839    2.2879    0.6061 C   0  0  0  0  0  0  0  0  0  0  0  0
    2.0499   -1.6766   -0.9669 C   0  0  0  0  0  0  0  0  0  0  0  0
    0.8301   -1.9401   -0.3432 C   0  0  0  0  0  0  0  0  0  0  0  0
    3.2672    1.2169    1.0148 C   0  0  0  0  0  0  0  0  0  0  0  0
   -2.2830    0.7702   -1.7349 C   0  0  0  0  0  0  0  0  0  0  0  0
    4.1008   -0.3472   -1.1383 C   0  0  0  0  0  0  0  0  0  0  0  0
   -1.9067   -1.9780    0.6608 C   0  0  0  0  0  0  0  0  0  0  0  0
   -2.2105    2.9202   -0.6351 C   0  0  0  0  0  0  0  0  0  0  0  0
   -2.2099    2.1614   -1.8055 C   0  0  0  0  0  0  0  0  0  0  0  0
   -3.0138   -1.9531   -1.5751 C   0  0  0  0  0  0  0  0  0  0  0  0
    4.4870    1.4804    0.3908 C   0  0  0  0  0  0  0  0  0  0  0  0
    4.9029    0.6998   -0.6837 C   0  0  0  0  0  0  0  0  0  0  0  0
   -2.2848    3.0989    1.8575 C   0  0  0  0  0  0  0  0  0  0  0  0
    0.8755    0.4889    2.0272 H   0  0  0  0  0  0  0  0  0  0  0  0
   -2.4497    0.4245    1.6495 H   0  0  0  0  0  0  0  0  0  0  0  0
    2.3565   -2.3009   -1.8036 H   0  0  0  0  0  0  0  0  0  0  0  0
    0.2312   -2.7679   -0.7113 H   0  0  0  0  0  0  0  0  0  0  0  0
    2.9619    1.8401    1.8528 H   0  0  0  0  0  0  0  0  0  0  0  0
   -2.2612    0.2158   -2.6660 H   0  0  0  0  0  0  0  0  0  0  0  0
    4.4460   -0.9443   -1.9798 H   0  0  0  0  0  0  0  0  0  0  0  0
   -2.1502    4.0031   -0.7046 H   0  0  0  0  0  0  0  0  0  0  0  0
   -2.1476    2.6541   -2.7715 H   0  0  0  0  0  0  0  0  0  0  0  0
   -2.2782   -1.9835   -2.3852 H   0  0  0  0  0  0  0  0  0  0  0  0
   -3.9285   -1.4464   -1.8991 H   0  0  0  0  0  0  0  0  0  0  0  0
   -3.2702   -2.9880   -1.3394 H   0  0  0  0  0  0  0  0  0  0  0  0
    5.1118    2.2955    0.7443 H   0  0  0  0  0  0  0  0  0  0  0  0
    5.8526    0.9055   -1.1690 H   0  0  0  0  0  0  0  0  0  0  0  0
   -2.9919    2.6888    2.5864 H   0  0  0  0  0  0  0  0  0  0  0  0
   -1.2838    3.1063    2.3003 H   0  0  0  0  0  0  0  0  0  0  0  0
   -2.5858    4.1342    1.6651 H   0  0  0  0  0  0  0  0  0  0  0  0
  1 16  2  0  0  0  0
  2  7  1  0  0  0  0
  2 16  1  0  0  0  0
  3  6  1  0  0  0  0
  3 16  1  0  0  0  0
  3 19  1  0  0  0  0
  4  5  1  0  0  0  0
  4  8  1  0  0  0  0
  4 13  2  0  0  0  0
  5 11  1  0  0  0  0
  5 15  2  0  0  0  0
  6  9  1  0  0  0  0
  6 14  2  0  0  0  0
  7  8  2  0  0  0  0
  7 12  1  0  0  0  0
  8 23  1  0  0  0  0
  9 10  2  0  0  0  0
  9 24  1  0  0  0  0
 10 17  1  0  0  0  0
 10 22  1  0  0  0  0
 11 12  2  0  0  0  0
 11 25  1  0  0  0  0
 12 26  1  0  0  0  0
 13 20  1  0  0  0  0
 13 27  1  0  0  0  0
 14 18  1  0  0  0  0
 14 28  1  0  0  0  0
 15 21  1  0  0  0  0
 15 29  1  0  0  0  0
 17 18  2  0  0  0  0
 17 30  1  0  0  0  0
 18 31  1  0  0  0  0
 19 32  1  0  0  0  0
 19 33  1  0  0  0  0
 19 34  1  0  0  0  0
 20 21  2  0  0  0  0
 20 35  1  0  0  0  0
 21 36  1  0  0  0  0
 22 37  1  0  0  0  0
 22 38  1  0  0  0  0
 22 39  1  0  0  0  0
M  END
> <DATABASE_ID>
DB00525

> <DATABASE_NAME>
drugbank

> <ORIGINAL_SOURCE>
PUBCHEM

> <ORIGINAL_SOURCE_URL>
https://pubchem.ncbi.nlm.nih.gov/rest/pug/compound/inchikey/FUSNMLFNXJSCDI-UHFFFAOYSA-N/SDF?record_type=3d

> <SMILES>
CN(C(=S)OC1=CC2=CC=CC=C2C=C1)C1=CC=CC(C)=C1

> <INCHI_IDENTIFIER>
InChI=1S/C19H17NOS/c1-14-6-5-9-17(12-14)20(2)19(22)21-18-11-10-15-7-3-4-8-16(15)13-18/h3-13H,1-2H3

> <INCHI_KEY>
FUSNMLFNXJSCDI-UHFFFAOYSA-N

> <FORMULA>
C19H17NOS

> <MOLECULAR_WEIGHT>
307.409

> <EXACT_MASS>
307.103084861

> <JCHEM_ACCEPTOR_COUNT>
1

> <JCHEM_AVERAGE_POLARIZABILITY>
34.22480822617392

> <JCHEM_BIOAVAILABILITY>
1

> <JCHEM_DONOR_COUNT>
0

> <JCHEM_FORMAL_CHARGE>
0

> <JCHEM_GHOSE_FILTER>
0

> <JCHEM_IUPAC>
N-methyl-N-(3-methylphenyl)-1-(naphthalen-2-yloxy)methanethioamide

> <ALOGPS_LOGP>
4.87

> <JCHEM_LOGP>
5.745039567000001

> <ALOGPS_LOGS>
-5.75

> <JCHEM_MDDR_LIKE_RULE>
0

> <JCHEM_NUMBER_OF_RINGS>
3

> <JCHEM_PHYSIOLOGICAL_CHARGE>
0

> <JCHEM_PKA_STRONGEST_BASIC>
0.07504048749554171

> <JCHEM_POLAR_SURFACE_AREA>
12.47

> <JCHEM_REFRACTIVITY>
94.92040000000004

> <JCHEM_ROTATABLE_BOND_COUNT>
3

> <JCHEM_RULE_OF_FIVE>
0

> <ALOGPS_SOLUBILITY>
5.46e-04 g/l

> <JCHEM_TRADITIONAL_IUPAC>
tolnaftate

> <JCHEM_VEBER_RULE>
1

$$$$
71616
  -OEChem-10051719183D

 39 41  0     1  0  0  0  0  0999 V2000
   -0.9996    1.2212   -1.9654 F   0  0  0  0  0  0  0  0  0  0  0  0
    2.8701    1.3731   -2.1001 F   0  0  0  0  0  0  0  0  0  0  0  0
   -5.1539    2.1719    0.0905 F   0  0  0  0  0  0  0  0  0  0  0  0
    0.2829   -0.4647    1.7018 O   0  0  0  0  0  0  0  0  0  0  0  0
   -0.6493   -2.2307   -0.4379 N   0  0  0  0  0  0  0  0  0  0  0  0
    2.9682    0.1732    1.3242 N   0  0  0  0  0  0  0  0  0  0  0  0
   -0.2755   -3.2364    0.3458 N   0  0  0  0  0  0  0  0  0  0  0  0
   -2.3465   -3.5614   -0.5698 N   0  0  0  0  0  0  0  0  0  0  0  0
    5.1028   -0.2105    0.2737 N   0  0  0  0  0  0  0  0  0  0  0  0
    0.0549    0.0832    0.3958 C   0  0  1  0  0  0  0  0  0  0  0  0
    1.1314    1.2132    0.1432 C   0  0  1  0  0  0  0  0  0  0  0  0
    0.2421   -1.0819   -0.6282 C   0  0  0  0  0  0  0  0  0  0  0  0
   -1.3688    0.6549    0.3097 C   0  0  0  0  0  0  0  0  0  0  0  0
    1.0004    2.4174    1.0931 C   0  0  0  0  0  0  0  0  0  0  0  0
    2.5737    0.7041    0.1673 C   0  0  0  0  0  0  0  0  0  0  0  0
   -1.7896    1.1878   -0.8833 C   0  0  0  0  0  0  0  0  0  0  0  0
   -2.1569    0.6066    1.4329 C   0  0  0  0  0  0  0  0  0  0  0  0
    3.3202    0.8303   -0.9645 C   0  0  0  0  0  0  0  0  0  0  0  0
   -3.0825    1.7060   -0.9582 C   0  0  0  0  0  0  0  0  0  0  0  0
   -3.4496    1.1249    1.3580 C   0  0  0  0  0  0  0  0  0  0  0  0
   -1.8655   -2.4114   -0.9816 C   0  0  0  0  0  0  0  0  0  0  0  0
   -3.9125    1.6745    0.1625 C   0  0  0  0  0  0  0  0  0  0  0  0
    4.6070    0.3450   -0.8515 C   0  0  0  0  0  0  0  0  0  0  0  0
    4.2419   -0.2638    1.3080 C   0  0  0  0  0  0  0  0  0  0  0  0
   -1.3454   -4.0265    0.2341 C   0  0  0  0  0  0  0  0  0  0  0  0
    0.9522    1.6211   -0.8592 H   0  0  0  0  0  0  0  0  0  0  0  0
    1.2517   -1.5041   -0.5475 H   0  0  0  0  0  0  0  0  0  0  0  0
    0.1182   -0.7585   -1.6671 H   0  0  0  0  0  0  0  0  0  0  0  0
    1.1099    2.1166    2.1409 H   0  0  0  0  0  0  0  0  0  0  0  0
    0.0320    2.9149    0.9840 H   0  0  0  0  0  0  0  0  0  0  0  0
    1.7739    3.1654    0.8829 H   0  0  0  0  0  0  0  0  0  0  0  0
   -0.2405   -1.2769    1.8043 H   0  0  0  0  0  0  0  0  0  0  0  0
   -1.8345    0.1958    2.3827 H   0  0  0  0  0  0  0  0  0  0  0  0
   -3.4430    2.1335   -1.8890 H   0  0  0  0  0  0  0  0  0  0  0  0
   -4.0960    1.1023    2.2305 H   0  0  0  0  0  0  0  0  0  0  0  0
   -2.3514   -1.7188   -1.6539 H   0  0  0  0  0  0  0  0  0  0  0  0
    5.2955    0.3907   -1.6885 H   0  0  0  0  0  0  0  0  0  0  0  0
    4.6135   -0.7054    2.2245 H   0  0  0  0  0  0  0  0  0  0  0  0
   -1.3975   -4.9707    0.7555 H   0  0  0  0  0  0  0  0  0  0  0  0
  1 16  1  0  0  0  0
  2 18  1  0  0  0  0
  3 22  1  0  0  0  0
  4 10  1  0  0  0  0
  4 32  1  0  0  0  0
  5  7  1  0  0  0  0
  5 12  1  0  0  0  0
  5 21  1  0  0  0  0
  6 15  2  0  0  0  0
  6 24  1  0  0  0  0
  7 25  2  0  0  0  0
  8 21  2  0  0  0  0
  8 25  1  0  0  0  0
  9 23  1  0  0  0  0
  9 24  2  0  0  0  0
 10 11  1  0  0  0  0
 10 12  1  0  0  0  0
 10 13  1  0  0  0  0
 11 14  1  0  0  0  0
 11 15  1  0  0  0  0
 11 26  1  0  0  0  0
 12 27  1  0  0  0  0
 12 28  1  0  0  0  0
 13 16  2  0  0  0  0
 13 17  1  0  0  0  0
 14 29  1  0  0  0  0
 14 30  1  0  0  0  0
 14 31  1  0  0  0  0
 15 18  1  0  0  0  0
 16 19  1  0  0  0  0
 17 20  2  0  0  0  0
 17 33  1  0  0  0  0
 18 23  2  0  0  0  0
 19 22  2  0  0  0  0
 19 34  1  0  0  0  0
 20 22  1  0  0  0  0
 20 35  1  0  0  0  0
 21 36  1  0  0  0  0
 23 37  1  0  0  0  0
 24 38  1  0  0  0  0
 25 39  1  0  0  0  0
M  END
> <DATABASE_ID>
DB00582

> <DATABASE_NAME>
drugbank

> <ORIGINAL_SOURCE>
PUBCHEM

> <ORIGINAL_SOURCE_URL>
https://pubchem.ncbi.nlm.nih.gov/rest/pug/compound/inchikey/BCEHBSKCWLPMDN-MGPLVRAMSA-N/SDF?record_type=3d

> <SMILES>
C[C@@H](C1=NC=NC=C1F)[C@](O)(CN1C=NC=N1)C1=C(F)C=C(F)C=C1

> <INCHI_IDENTIFIER>
InChI=1S/C16H14F3N5O/c1-10(15-14(19)5-20-7-22-15)16(25,6-24-9-21-8-23-24)12-3-2-11(17)4-13(12)18/h2-5,7-10,25H,6H2,1H3/t10-,16+/m0/s1

> <INCHI_KEY>
BCEHBSKCWLPMDN-MGPLVRAMSA-N

> <FORMULA>
C16H14F3N5O

> <MOLECULAR_WEIGHT>
349.3105

> <EXACT_MASS>
349.11504471

> <JCHEM_ACCEPTOR_COUNT>
5

> <JCHEM_AVERAGE_POLARIZABILITY>
30.54426257953428

> <JCHEM_BIOAVAILABILITY>
1

> <JCHEM_DONOR_COUNT>
1

> <JCHEM_FORMAL_CHARGE>
0

> <JCHEM_GHOSE_FILTER>
1

> <JCHEM_IUPAC>
(2R,3S)-2-(2,4-difluorophenyl)-3-(5-fluoropyrimidin-4-yl)-1-(1H-1,2,4-triazol-1-yl)butan-2-ol

> <ALOGPS_LOGP>
1.65

> <JCHEM_LOGP>
1.8230325923333337

> <ALOGPS_LOGS>
-3.55

> <JCHEM_MDDR_LIKE_RULE>
0

> <JCHEM_NUMBER_OF_RINGS>
3

> <JCHEM_PHYSIOLOGICAL_CHARGE>
0

> <JCHEM_PKA_STRONGEST_ACIDIC>
12.708208344255155

> <JCHEM_PKA_STRONGEST_BASIC>
2.268914242488986

> <JCHEM_POLAR_SURFACE_AREA>
76.72

> <JCHEM_REFRACTIVITY>
95.27799999999999

> <JCHEM_ROTATABLE_BOND_COUNT>
5

> <JCHEM_RULE_OF_FIVE>
1

> <ALOGPS_SOLUBILITY>
9.78e-02 g/l

> <JCHEM_TRADITIONAL_IUPAC>
voriconazole

> <JCHEM_VEBER_RULE>
0

$$$$
47472
  -OEChem-10051719203D

 42 44  0     1  0  0  0  0  0999 V2000
    0.6117    1.7973   -2.4142 Cl  0  0  0  0  0  0  0  0  0  0  0  0
   -3.3586    2.1667    1.3899 Cl  0  0  0  0  0  0  0  0  0  0  0  0
    7.1706   -0.6812   -0.0766 Cl  0  0  0  0  0  0  0  0  0  0  0  0
   -2.0307    0.4845   -1.0521 S   0  0  0  0  0  0  0  0  0  0  0  0
   -3.0915   -2.2472   -0.0678 N   0  0  0  0  0  0  0  0  0  0  0  0
   -5.1875   -2.8191   -0.4229 N   0  0  0  0  0  0  0  0  0  0  0  0
   -1.1209   -0.6958    0.0145 C   0  0  2  0  0  0  0  0  0  0  0  0
    0.4021   -0.5822   -0.2053 C   0  0  0  0  0  0  0  0  0  0  0  0
   -1.6530   -2.1068   -0.2948 C   0  0  0  0  0  0  0  0  0  0  0  0
    1.2716   -1.4933    0.6773 C   0  0  0  0  0  0  0  0  0  0  0  0
    2.7540   -1.2882    0.4866 C   0  0  0  0  0  0  0  0  0  0  0  0
   -1.3495    2.0384   -0.4938 C   0  0  0  0  0  0  0  0  0  0  0  0
   -3.7674   -1.7907    1.0133 C   0  0  0  0  0  0  0  0  0  0  0  0
   -3.9655   -2.8553   -0.9060 C   0  0  0  0  0  0  0  0  0  0  0  0
    3.4270   -2.0352   -0.4679 C   0  0  0  0  0  0  0  0  0  0  0  0
    3.4182   -0.3573    1.2704 C   0  0  0  0  0  0  0  0  0  0  0  0
   -5.0710   -2.1562    0.7731 C   0  0  0  0  0  0  0  0  0  0  0  0
    4.7980   -1.8464   -0.6430 C   0  0  0  0  0  0  0  0  0  0  0  0
    4.7891   -0.1685    1.0952 C   0  0  0  0  0  0  0  0  0  0  0  0
   -0.2061    2.5799   -1.1025 C   0  0  0  0  0  0  0  0  0  0  0  0
   -1.9479    2.7412    0.5640 C   0  0  0  0  0  0  0  0  0  0  0  0
    5.4791   -0.9130    0.1386 C   0  0  0  0  0  0  0  0  0  0  0  0
    0.3250    3.7932   -0.6648 C   0  0  0  0  0  0  0  0  0  0  0  0
   -1.4167    3.9544    1.0016 C   0  0  0  0  0  0  0  0  0  0  0  0
   -0.2801    4.4805    0.3872 C   0  0  0  0  0  0  0  0  0  0  0  0
   -1.3317   -0.4368    1.0581 H   0  0  0  0  0  0  0  0  0  0  0  0
    0.6428   -0.7950   -1.2542 H   0  0  0  0  0  0  0  0  0  0  0  0
    0.7347    0.4319    0.0262 H   0  0  0  0  0  0  0  0  0  0  0  0
   -1.1891   -2.8532    0.3597 H   0  0  0  0  0  0  0  0  0  0  0  0
   -1.4444   -2.3958   -1.3323 H   0  0  0  0  0  0  0  0  0  0  0  0
    1.0158   -1.3321    1.7328 H   0  0  0  0  0  0  0  0  0  0  0  0
    1.0375   -2.5460    0.4779 H   0  0  0  0  0  0  0  0  0  0  0  0
   -3.3048   -1.2786    1.8449 H   0  0  0  0  0  0  0  0  0  0  0  0
   -3.6740   -3.3062   -1.8449 H   0  0  0  0  0  0  0  0  0  0  0  0
    2.9049   -2.7627   -1.0827 H   0  0  0  0  0  0  0  0  0  0  0  0
    2.8889    0.2288    2.0163 H   0  0  0  0  0  0  0  0  0  0  0  0
   -5.9307   -1.9795    1.4028 H   0  0  0  0  0  0  0  0  0  0  0  0
    5.3225   -2.4334   -1.3926 H   0  0  0  0  0  0  0  0  0  0  0  0
    5.3065    0.5626    1.7110 H   0  0  0  0  0  0  0  0  0  0  0  0
    1.2103    4.2188   -1.1307 H   0  0  0  0  0  0  0  0  0  0  0  0
   -1.8736    4.5048    1.8204 H   0  0  0  0  0  0  0  0  0  0  0  0
    0.1336    5.4250    0.7282 H   0  0  0  0  0  0  0  0  0  0  0  0
  1 20  1  0  0  0  0
  2 21  1  0  0  0  0
  3 22  1  0  0  0  0
  4  7  1  0  0  0  0
  4 12  1  0  0  0  0
  5  9  1  0  0  0  0
  5 13  1  0  0  0  0
  5 14  1  0  0  0  0
  6 14  2  0  0  0  0
  6 17  1  0  0  0  0
  7  8  1  0  0  0  0
  7  9  1  0  0  0  0
  7 26  1  0  0  0  0
  8 10  1  0  0  0  0
  8 27  1  0  0  0  0
  8 28  1  0  0  0  0
  9 29  1  0  0  0  0
  9 30  1  0  0  0  0
 10 11  1  0  0  0  0
 10 31  1  0  0  0  0
 10 32  1  0  0  0  0
 11 15  2  0  0  0  0
 11 16  1  0  0  0  0
 12 20  2  0  0  0  0
 12 21  1  0  0  0  0
 13 17  2  0  0  0  0
 13 33  1  0  0  0  0
 14 34  1  0  0  0  0
 15 18  1  0  0  0  0
 15 35  1  0  0  0  0
 16 19  2  0  0  0  0
 16 36  1  0  0  0  0
 17 37  1  0  0  0  0
 18 22  2  0  0  0  0
 18 38  1  0  0  0  0
 19 22  1  0  0  0  0
 19 39  1  0  0  0  0
 20 23  1  0  0  0  0
 21 24  2  0  0  0  0
 23 25  2  0  0  0  0
 23 40  1  0  0  0  0
 24 25  1  0  0  0  0
 24 41  1  0  0  0  0
 25 42  1  0  0  0  0
M  END
> <DATABASE_ID>
DB00639

> <DATABASE_NAME>
drugbank

> <ORIGINAL_SOURCE>
PUBCHEM

> <ORIGINAL_SOURCE_URL>
https://pubchem.ncbi.nlm.nih.gov/rest/pug/compound/inchikey/SWLMUYACZKCSHZ-UHFFFAOYSA-N/SDF?record_type=3d

> <SMILES>
ClC1=CC=C(CCC(CN2C=CN=C2)SC2=C(Cl)C=CC=C2Cl)C=C1

> <INCHI_IDENTIFIER>
InChI=1S/C19H17Cl3N2S/c20-15-7-4-14(5-8-15)6-9-16(12-24-11-10-23-13-24)25-19-17(21)2-1-3-18(19)22/h1-5,7-8,10-11,13,16H,6,9,12H2

> <INCHI_KEY>
SWLMUYACZKCSHZ-UHFFFAOYSA-N

> <FORMULA>
C19H17Cl3N2S

> <MOLECULAR_WEIGHT>
411.776

> <EXACT_MASS>
410.017802365

> <JCHEM_ACCEPTOR_COUNT>
1

> <JCHEM_AVERAGE_POLARIZABILITY>
41.00664949220142

> <JCHEM_BIOAVAILABILITY>
1

> <JCHEM_DONOR_COUNT>
0

> <JCHEM_FORMAL_CHARGE>
0

> <JCHEM_GHOSE_FILTER>
0

> <JCHEM_IUPAC>
1-[4-(4-chlorophenyl)-2-[(2,6-dichlorophenyl)sulfanyl]butyl]-1H-imidazole

> <ALOGPS_LOGP>
6.70

> <JCHEM_LOGP>
6.552484297333333

> <ALOGPS_LOGS>
-5.70

> <JCHEM_MDDR_LIKE_RULE>
1

> <JCHEM_NUMBER_OF_RINGS>
3

> <JCHEM_PHYSIOLOGICAL_CHARGE>
0

> <JCHEM_PKA_STRONGEST_BASIC>
6.7811216992495575

> <JCHEM_POLAR_SURFACE_AREA>
17.82

> <JCHEM_REFRACTIVITY>
108.986

> <JCHEM_ROTATABLE_BOND_COUNT>
7

> <JCHEM_RULE_OF_FIVE>
0

> <ALOGPS_SOLUBILITY>
8.18e-04 g/l

> <JCHEM_TRADITIONAL_IUPAC>
butoconazole

> <JCHEM_VEBER_RULE>
1

$$$$

  Mrv1909 12171918222D          

 65 67  0  0  0  0            999 V2000
    4.2834    2.2687    0.0000 C   0  0  1  0  0  0  0  0  0  0  0  0
    4.2834    1.4420    0.0000 O   0  0  0  0  0  0  0  0  0  0  0  0
    5.7104    1.4420    0.0000 C   0  0  0  0  0  0  0  0  0  0  0  0
    5.7104    2.2687    0.0000 C   0  0  0  0  0  0  0  0  0  0  0  0
    4.9969    2.6862    0.0000 C   0  0  0  0  0  0  0  0  0  0  0  0
    3.5694    2.6779    0.0000 C   0  0  0  0  0  0  0  0  0  0  0  0
    2.8554    2.2645    0.0000 C   0  0  0  0  0  0  0  0  0  0  0  0
    2.1414    2.6737    0.0000 C   0  0  0  0  0  0  0  0  0  0  0  0
    1.4275    2.2603    0.0000 C   0  0  0  0  0  0  0  0  0  0  0  0
    0.7135    2.6696    0.0000 C   0  0  0  0  0  0  0  0  0  0  0  0
   -0.0004    2.2562    0.0000 C   0  0  0  0  0  0  0  0  0  0  0  0
   -0.7144    2.6654    0.0000 C   0  0  0  0  0  0  0  0  0  0  0  0
   -1.4284    2.2520    0.0000 C   0  0  0  0  0  0  0  0  0  0  0  0
   -2.1423    2.6612    0.0000 C   0  0  0  0  0  0  0  0  0  0  0  0
   -2.8563    2.2478    0.0000 C   0  0  0  0  0  0  0  0  0  0  0  0
   -3.5703    2.6570    0.0000 C   0  0  0  0  0  0  0  0  0  0  0  0
   -4.2843    2.2437    0.0000 C   0  0  0  0  0  0  0  0  0  0  0  0
   -4.9982    2.6528    0.0000 O   0  0  0  0  0  0  0  0  0  0  0  0
   -5.7122    2.2395    0.0000 C   0  0  1  0  0  0  0  0  0  0  0  0
   -6.4262    2.6486    0.0000 C   0  0  0  0  0  0  0  0  0  0  0  0
   -5.7104    1.4128    0.0000 C   0  0  1  0  0  0  0  0  0  0  0  0
   -6.4254    0.9978    0.0000 C   0  0  2  0  0  0  0  0  0  0  0  0
   -4.9935    1.0010    0.0000 C   0  0  0  0  0  0  0  0  0  0  0  0
   -7.1423    1.4097    0.0000 O   0  0  0  0  0  0  0  0  0  0  0  0
   -6.4236    0.1711    0.0000 C   0  0  1  0  0  0  0  0  0  0  0  0
   -7.1387   -0.2437    0.0000 C   0  0  0  0  0  0  0  0  0  0  0  0
   -5.7067   -0.2405    0.0000 C   0  0  0  0  0  0  0  0  0  0  0  0
   -4.9940    0.1769    0.0000 C   0  0  0  0  0  0  0  0  0  0  0  0
   -4.2801   -0.2322    0.0000 C   0  0  0  0  0  0  0  0  0  0  0  0
   -3.5661    0.1810    0.0000 C   0  0  0  0  0  0  0  0  0  0  0  0
   -2.8521   -0.2280    0.0000 C   0  0  0  0  0  0  0  0  0  0  0  0
   -2.1381    0.1852    0.0000 C   0  0  0  0  0  0  0  0  0  0  0  0
   -1.4241   -0.2238    0.0000 C   0  0  0  0  0  0  0  0  0  0  0  0
   -0.7102    0.1894    0.0000 C   0  0  0  0  0  0  0  0  0  0  0  0
    0.0037   -0.2197    0.0000 C   0  0  0  0  0  0  0  0  0  0  0  0
    0.7177    0.1936    0.0000 C   0  0  0  0  0  0  0  0  0  0  0  0
    1.4317   -0.2155    0.0000 C   0  0  0  0  0  0  0  0  0  0  0  0
    2.1456    0.1978    0.0000 C   0  0  0  0  0  0  0  0  0  0  0  0
    2.8596   -0.2113    0.0000 C   0  0  0  0  0  0  0  0  0  0  0  0
    3.5736    0.2020    0.0000 C   0  0  0  0  0  0  0  0  0  0  0  0
    4.2876   -0.2072    0.0000 C   0  0  0  0  0  0  0  0  0  0  0  0
    6.4275    2.6800    0.0000 O   0  0  0  0  0  0  0  0  0  0  0  0
    6.4257    1.0276    0.0000 C   0  0  0  0  0  0  0  0  0  0  0  0
    6.4245    0.2009    0.0000 O   0  0  0  0  0  0  0  0  0  0  0  0
    7.1423    1.4399    0.0000 O   0  0  0  0  0  0  0  0  0  0  0  0
    4.2793    3.0955    0.0000 O   0  0  0  0  0  0  0  0  0  0  0  0
    2.8572    1.4378    0.0000 O   0  0  0  0  0  0  0  0  0  0  0  0
    2.1396    3.5004    0.0000 O   0  0  0  0  0  0  0  0  0  0  0  0
    0.0013    1.4295    0.0000 O   0  0  0  0  0  0  0  0  0  0  0  0
   -1.4266    1.4253    0.0000 O   0  0  0  0  0  0  0  0  0  0  0  0
   -2.8545    1.4211    0.0000 O   0  0  0  0  0  0  0  0  0  0  0  0
   -4.2825    1.4170    0.0000 O   0  0  0  0  0  0  0  0  0  0  0  0
    4.2902   -1.0339    0.0000 O   0  0  0  0  0  0  0  0  0  0  0  0
    5.0022    0.2084    0.0000 C   0  0  0  0  0  0  0  0  0  0  0  0
    4.9995    1.0351    0.0000 C   0  0  0  0  0  0  0  0  0  0  0  0
    5.0015   -1.4430    0.0000 C   0  0  2  0  0  0  0  0  0  0  0  0
    5.0008   -2.2646    0.0000 C   0  0  2  0  0  0  0  0  0  0  0  0
    5.7081   -2.6737    0.0000 C   0  0  2  0  0  0  0  0  0  0  0  0
    6.4206   -2.2657    0.0000 C   0  0  1  0  0  0  0  0  0  0  0  0
    6.4213   -1.4441    0.0000 C   0  0  2  0  0  0  0  0  0  0  0  0
    5.7095   -1.0306    0.0000 O   0  0  0  0  0  0  0  0  0  0  0  0
    7.1380   -1.0321    0.0000 C   0  0  0  0  0  0  0  0  0  0  0  0
    7.1357   -2.6807    0.0000 O   0  0  0  0  0  0  0  0  0  0  0  0
    5.7063   -3.5004    0.0000 N   0  0  0  0  0  0  0  0  0  0  0  0
    4.2846   -2.6774    0.0000 O   0  0  0  0  0  0  0  0  0  0  0  0
 31 32  1  0  0  0  0
  6  7  1  0  0  0  0
 32 33  1  0  0  0  0
 15 16  1  0  0  0  0
 33 34  2  0  0  0  0
  1  5  1  0  0  0  0
 34 35  1  0  0  0  0
 16 17  1  0  0  0  0
 35 36  2  0  0  0  0
  7  8  1  0  0  0  0
 36 37  1  0  0  0  0
 17 18  1  0  0  0  0
 37 38  2  0  0  0  0
  2 55  1  0  0  0  0
 38 39  1  0  0  0  0
 18 19  1  0  0  0  0
 39 40  2  0  0  0  0
  8  9  1  0  0  0  0
 40 41  1  0  0  0  0
 19 20  1  6  0  0  0
  4 42  1  0  0  0  0
 55  3  1  0  0  0  0
  3 43  1  0  0  0  0
 19 21  1  0  0  0  0
 43 44  2  0  0  0  0
  9 10  1  0  0  0  0
 43 45  1  0  0  0  0
 21 22  1  0  0  0  0
  1 46  1  1  0  0  0
  3  4  1  0  0  0  0
  7 47  1  0  0  0  0
 21 23  1  6  0  0  0
  8 48  1  0  0  0  0
 10 11  1  0  0  0  0
 11 49  1  0  0  0  0
 22 24  1  1  0  0  0
 13 50  1  0  0  0  0
  4  5  1  0  0  0  0
 15 51  1  0  0  0  0
 22 25  1  0  0  0  0
 17 52  2  0  0  0  0
 11 12  1  0  0  0  0
 41 53  1  0  0  0  0
 25 26  1  6  0  0  0
 41 54  1  0  0  0  0
  1  2  1  0  0  0  0
 54 55  1  0  0  0  0
 25 27  1  0  0  0  0
 56 53  1  1  0  0  0
 56 57  1  0  0  0  0
 12 13  1  0  0  0  0
 27 28  2  0  0  0  0
  1  6  1  0  0  0  0
 28 29  1  0  0  0  0
 13 14  1  0  0  0  0
 56 61  1  0  0  0  0
 57 58  1  0  0  0  0
 58 59  1  0  0  0  0
 59 60  1  0  0  0  0
 60 61  1  0  0  0  0
 29 30  2  0  0  0  0
 60 62  1  6  0  0  0
 59 63  1  1  0  0  0
 30 31  1  0  0  0  0
 58 64  1  6  0  0  0
 14 15  1  0  0  0  0
 57 65  1  6  0  0  0
M  END
> <DATABASE_ID>
DB00646

> <DATABASE_NAME>
drugbank

> <SMILES>
C[C@H]1O[C@H](OC2CC3O[C@@](O)(CC(O)C3C(O)=O)CC(O)C(O)CCC(O)CC(O)CC(O)CC(=O)O[C@@H](C)[C@H](C)[C@H](O)[C@@H](C)\C=C\C=C\CC\C=C\C=C\C=C\C=C\2)[C@@H](O)[C@@H](N)[C@@H]1O

> <INCHI_IDENTIFIER>
InChI=1S/C47H75NO17/c1-27-17-15-13-11-9-7-5-6-8-10-12-14-16-18-34(64-46-44(58)41(48)43(57)30(4)63-46)24-38-40(45(59)60)37(54)26-47(61,65-38)25-36(53)35(52)20-19-31(49)21-32(50)22-33(51)23-39(55)62-29(3)28(2)42(27)56/h5-6,8,10-18,27-38,40-44,46,49-54,56-58,61H,7,9,19-26,48H2,1-4H3,(H,59,60)/b6-5+,10-8+,13-11+,14-12+,17-15+,18-16+/t27-,28-,29-,30+,31?,32?,33?,34?,35?,36?,37?,38?,40?,41-,42+,43+,44-,46+,47+/m0/s1

> <INCHI_KEY>
VQOXZBDYSJBXMA-RKEBNKJGSA-N

> <FORMULA>
C47H75NO17

> <MOLECULAR_WEIGHT>
926.107

> <EXACT_MASS>
925.503499959

> <JCHEM_ACCEPTOR_COUNT>
17

> <JCHEM_ATOM_COUNT>
140

> <JCHEM_AVERAGE_NEUTRAL_MICROSPECIES_CHARGE>
1.0101942831749031

> <JCHEM_AVERAGE_POLARIZABILITY>
99.93085380462084

> <JCHEM_BIOAVAILABILITY>
0

> <JCHEM_DONOR_COUNT>
12

> <JCHEM_FORMAL_CHARGE>
0

> <JCHEM_GHOSE_FILTER>
0

> <JCHEM_IUPAC>
(1S,15S,16R,17R,18S,19E,21E,25E,27E,29E,31E)-33-{[(2S,3S,4S,5S,6R)-4-amino-3,5-dihydroxy-6-methyloxan-2-yl]oxy}-1,3,4,7,9,11,17,37-octahydroxy-15,16,18-trimethyl-13-oxo-14,39-dioxabicyclo[33.3.1]nonatriaconta-19,21,25,27,29,31-hexaene-36-carboxylic acid

> <ALOGPS_LOGP>
-3.13

> <JCHEM_LOGP>
-1.9383262757226232

> <ALOGPS_LOGS>
-4.03

> <JCHEM_MDDR_LIKE_RULE>
0

> <JCHEM_NEUTRAL_CHARGE>
0

> <JCHEM_NUMBER_OF_RINGS>
3

> <JCHEM_PHYSIOLOGICAL_CHARGE>
0

> <JCHEM_PKA>
11.822025287679976

> <JCHEM_PKA_STRONGEST_ACIDIC>
3.6115930896008326

> <JCHEM_PKA_STRONGEST_BASIC>
9.113091044951755

> <JCHEM_POLAR_SURFACE_AREA>
319.60999999999996

> <JCHEM_REFRACTIVITY>
243.5539000000002

> <JCHEM_ROTATABLE_BOND_COUNT>
3

> <JCHEM_RULE_OF_FIVE>
0

> <ALOGPS_SOLUBILITY>
8.60e-02 g/l

> <JCHEM_TRADITIONAL_IUPAC>
nystatin

> <JCHEM_VEBER_RULE>
0

> <DRUGBANK_ID>
DB00646

> <SECONDARY_ACCESSION_NUMBERS>
APRD01146

> <DRUG_GROUPS>
approved; vet_approved

> <GENERIC_NAME>
Nystatin

> <SYNONYMS>
Nistatina; NYS; Nystatin; Nystatine; Nystatinum

> <PRODUCTS>
Candistatin Topical Powder - 100000 Unit/g; Dom-nystatin Suspension; FIRST BXN Mouthwash; FIRST Dukes Mouthwash Compounding; FIRST Marys Mouthwash Compounding; Flagystatin; Ftp-nystatin; Jamp-nystatin Oral Suspension USP; Kenacomb Cream; Kenacomb Mild Cream; Kenacomb Mild Ointment; Kenacomb Ointment; Kenacomb Ont; Lidecomb Cream; Mecomb Crm 0.1%; Mestatin; Mycolog-II; Mycostatin; Mycostatin Crm 100000unit/gm; Mycostatin Ont 100000iu/gm; Mycostatin Oral Suspension 100000iu; Mycostatin Oral Tab 500000iu; Mycostatin Topical Pwr 100,000units/gm; Mycostatin Vaginal Crm 25000unit; Nadostine Crm 100000iu/gm; Nadostine Ont 100000iu/gm; Nadostine Sus 100000iu/ml; Nadostine Tab 100000unit; Nadostine Tab 500000unit; Nilstat 25000units/g; Nilstat Oral Dps 100000iu/ml; Nilstat Orl Tab 500000unit; Nilstat Sucrose-free; Nilstat Top Crm 100000unit/gm; Nilstat Top Ont 100000unit/gm; Nilstat Vag Crm 100000unit/gm; Nilstat Vag Tab 100000unit; Nyaderm Crm 100000unit/gm; Nyaderm Ont 100000unit/gm; Nyaderm Oral Sus 100000unit/ml USP; Nyaderm Vag Crm 25000unit/gm; Nyamyc; Nyata; Nyata Nystatin Powder; Nystatin; Nystatin Cream; Nystatin Oral Suspension; Nystatin Topical Powder; Nystatin and Triamcinolone; Nystatin and Triamcinolone Acetonide; Nystop; PHL-nystatin Suspension 100000 Unit/ml; PMS-nystatin Suspension 100000 Unit/ml; Pedi-Dri; Pediaderm AF; Ratio-nystatin; Teva-nystatin; Teva-triacomb; Theraderm Cream; Viaderm Kc Crm; Viaderm Kc Ont

> <INTERNATIONAL_BRANDS>
Adiclair; Afunginal; Biofanal; Candacide; Candermil; Candex; Candidias; Candistat; Candistin; Canstat; Cazetin; Diaper NZ; Dipni; Enystin; Fukangning; Fungatin; Fungicidin Leciva; Fungistin; Fungostatin; Funistatin; Gynostatin; Kandistatin; Kenalon; Lederlind; Ledernyst; Lystin; Nilstat; Nyaderm; Nystan

> <SALTS>
Nystatin dihydrate

$$$$
 
  Mrv0541 02231214552D          
 
 66 68  0  0  1  0            999 V2000
   17.5303   -9.2087    0.0000 C   0  0  1  0  0  0  0  0  0  0  0  0
   18.2484   -8.7918    0.0000 C   0  0  1  0  0  0  0  0  0  0  0  0
   16.8096   -8.7952    0.0000 O   0  0  0  0  0  0  0  0  0  0  0  0
   17.5303  -10.0323    0.0000 C   0  0  0  0  0  0  0  0  0  0  0  0
   18.2484   -7.9682    0.0000 C   0  0  2  0  0  0  0  0  0  0  0  0
   18.9655   -9.2053    0.0000 C   0  0  0  0  0  0  0  0  0  0  0  0
   16.8096   -7.9682    0.0000 C   0  0  1  0  0  0  0  0  0  0  0  0
   16.8165  -10.4458    0.0000 C   0  0  1  0  0  0  0  0  0  0  0  0
   17.5303   -7.5547    0.0000 C   0  0  0  0  0  0  0  0  0  0  0  0
   18.9620   -7.5513    0.0000 O   0  0  0  0  0  0  0  0  0  0  0  0
   18.9655  -10.0323    0.0000 O   0  0  0  0  0  0  0  0  0  0  0  0
   19.6793   -8.7918    0.0000 O   0  0  0  0  0  0  0  0  0  0  0  0
   16.0992   -7.5582    0.0000 C   0  0  0  0  0  0  0  0  0  0  0  0
   16.8061   -7.1411    0.0000 O   0  0  0  0  0  0  0  0  0  0  0  0
   16.8199  -11.2728    0.0000 O   0  0  0  0  0  0  0  0  0  0  0  0
   16.1061  -10.0392    0.0000 C   0  0  0  0  0  0  0  0  0  0  0  0
   15.3853   -7.9716    0.0000 C   0  0  2  0  0  0  0  0  0  0  0  0
   16.1061  -11.6898    0.0000 C   0  0  1  0  0  0  0  0  0  0  0  0
   15.3922  -10.4493    0.0000 C   0  0  0  0  0  0  0  0  0  0  0  0
   14.6675   -7.5616    0.0000 C   0  0  0  0  0  0  0  0  0  0  0  0
   15.3853   -8.7987    0.0000 O   0  0  0  0  0  0  0  0  0  0  0  0
   16.1096  -12.5210    0.0000 C   0  0  2  0  0  0  0  0  0  0  0  0
   15.3922  -11.2764    0.0000 O   0  0  0  0  0  0  0  0  0  0  0  0
   14.6784  -10.0468    0.0000 C   0  0  0  0  0  0  0  0  0  0  0  0
   13.9537   -7.9751    0.0000 C   0  0  2  0  0  0  0  0  0  0  0  0
   15.3958  -12.9346    0.0000 C   0  0  2  0  0  0  0  0  0  0  0  0
   16.8276  -12.9269    0.0000 O   0  0  0  0  0  0  0  0  0  0  0  0
   14.6784  -11.6898    0.0000 C   0  0  1  0  0  0  0  0  0  0  0  0
   13.9606  -10.4603    0.0000 C   0  0  0  0  0  0  0  0  0  0  0  0
   13.2399   -7.5651    0.0000 C   0  0  1  0  0  0  0  0  0  0  0  0
   13.9571   -8.8021    0.0000 O   0  0  0  0  0  0  0  0  0  0  0  0
   14.6784  -12.5210    0.0000 C   0  0  1  0  0  0  0  0  0  0  0  0
   15.3958  -13.7615    0.0000 N   0  0  0  0  0  0  0  0  0  0  0  0
   13.9571  -11.2839    0.0000 C   0  0  0  0  0  0  0  0  0  0  0  0
   13.2467  -10.0502    0.0000 C   0  0  0  0  0  0  0  0  0  0  0  0
   12.5295   -7.9827    0.0000 C   0  0  0  0  0  0  0  0  0  0  0  0
   13.2399   -6.7379    0.0000 O   0  0  0  0  0  0  0  0  0  0  0  0
   13.9606  -12.9380    0.0000 O   0  0  0  0  0  0  0  0  0  0  0  0
   12.5364  -10.4638    0.0000 C   0  0  0  0  0  0  0  0  0  0  0  0
   11.8115   -7.5726    0.0000 C   0  0  0  0  0  0  0  0  0  0  0  0
   11.8226  -10.0537    0.0000 C   0  0  0  0  0  0  0  0  0  0  0  0
   11.0976   -7.9862    0.0000 C   0  0  2  0  0  0  0  0  0  0  0  0
   11.1046  -10.4672    0.0000 C   0  0  0  0  0  0  0  0  0  0  0  0
   10.3838   -7.5761    0.0000 C   0  0  0  0  0  0  0  0  0  0  0  0
   11.0976   -8.8131    0.0000 O   0  0  0  0  0  0  0  0  0  0  0  0
   10.3907  -10.0571    0.0000 C   0  0  0  0  0  0  0  0  0  0  0  0
    9.6700   -7.9896    0.0000 C   0  0  2  0  0  0  0  0  0  0  0  0
    9.6769  -10.4707    0.0000 C   0  0  0  0  0  0  0  0  0  0  0  0
    8.9555   -7.5795    0.0000 C   0  0  0  0  0  0  0  0  0  0  0  0
    9.6735   -8.8166    0.0000 O   0  0  0  0  0  0  0  0  0  0  0  0
    8.9666  -10.0606    0.0000 C   0  0  0  0  0  0  0  0  0  0  0  0
    8.2417   -7.9931    0.0000 C   0  0  0  0  0  0  0  0  0  0  0  0
    8.2451  -10.4741    0.0000 C   0  0  0  0  0  0  0  0  0  0  0  0
    7.5279   -7.5830    0.0000 O   0  0  0  0  0  0  0  0  0  0  0  0
    8.2417   -8.8200    0.0000 O   0  0  0  0  0  0  0  0  0  0  0  0
    7.5314  -10.0640    0.0000 C   0  0  0  0  0  0  0  0  0  0  0  0
    6.8141   -7.9965    0.0000 C   0  0  2  0  0  0  0  0  0  0  0  0
    6.8176  -10.4776    0.0000 C   0  0  0  0  0  0  0  0  0  0  0  0
    6.8141   -8.8235    0.0000 C   0  0  1  0  0  0  0  0  0  0  0  0
    6.0962   -7.5830    0.0000 C   0  0  0  0  0  0  0  0  0  0  0  0
    6.0962  -10.0640    0.0000 C   0  0  1  0  0  0  0  0  0  0  0  0
    6.0962   -9.2371    0.0000 C   0  0  1  0  0  0  0  0  0  0  0  0
    7.5314   -9.2371    0.0000 C   0  0  0  0  0  0  0  0  0  0  0  0
    5.3872  -10.4776    0.0000 C   0  0  0  0  0  0  0  0  0  0  0  0
    5.3872   -8.8235    0.0000 O   0  0  0  0  0  0  0  0  0  0  0  0
   18.2392   -9.6196    0.0000 H   0  0  0  0  0  0  0  0  0  0  0  0
  1  2  1  0  0  0  0
  1  3  1  0  0  0  0
  1  4  1  0  0  0  0
  2  5  1  0  0  0  0
  2  6  1  1  0  0  0
  3  7  1  0  0  0  0
  4  8  1  0  0  0  0
  5  9  1  0  0  0  0
  5 10  1  6  0  0  0
  6 11  1  0  0  0  0
  6 12  2  0  0  0  0
  7 13  1  0  0  0  0
  7 14  1  1  0  0  0
  8 15  1  1  0  0  0
  8 16  1  0  0  0  0
 13 17  1  0  0  0  0
 15 18  1  0  0  0  0
 16 19  2  0  0  0  0
 17 20  1  0  0  0  0
 17 21  1  1  0  0  0
 18 22  1  0  0  0  0
 18 23  1  1  0  0  0
 19 24  1  0  0  0  0
 20 25  1  0  0  0  0
 22 26  1  0  0  0  0
 22 27  1  1  0  0  0
 23 28  1  0  0  0  0
 24 29  2  0  0  0  0
 25 30  1  0  0  0  0
 25 31  1  1  0  0  0
 26 32  1  0  0  0  0
 26 33  1  1  0  0  0
 28 34  1  1  0  0  0
 29 35  1  0  0  0  0
 30 36  1  0  0  0  0
 30 37  1  1  0  0  0
 32 38  1  6  0  0  0
 35 39  2  0  0  0  0
 36 40  1  0  0  0  0
 39 41  1  0  0  0  0
 40 42  1  0  0  0  0
 41 43  2  0  0  0  0
 42 44  1  0  0  0  0
 42 45  1  1  0  0  0
 43 46  1  0  0  0  0
 44 47  1  0  0  0  0
 46 48  2  0  0  0  0
 47 49  1  0  0  0  0
 47 50  1  1  0  0  0
 48 51  1  0  0  0  0
 49 52  1  0  0  0  0
 51 53  2  0  0  0  0
 52 54  1  0  0  0  0
 52 55  2  0  0  0  0
 53 56  1  0  0  0  0
 54 57  1  0  0  0  0
 56 58  2  0  0  0  0
 57 59  1  0  0  0  0
 57 60  1  6  0  0  0
 58 61  1  0  0  0  0
 59 62  1  0  0  0  0
 59 63  1  6  0  0  0
 61 64  1  6  0  0  0
 62 65  1  1  0  0  0
  7  9  1  0  0  0  0
 28 32  1  0  0  0  0
 61 62  1  0  0  0  0
  1 66  1  1  0  0  0
M  END
> <DATABASE_ID>
DB00681

> <DATABASE_NAME>
drugbank

> <SMILES>
[H][C@]12C[C@@H](O[C@@H]3O[C@H](C)[C@@H](O)[C@H](N)[C@@H]3O)\C=C\C=C\C=C\C=C\C=C\C=C\C=C\[C@H](C)[C@@H](O)[C@@H](C)[C@H](C)OC(=O)C[C@H](O)C[C@H](O)CC[C@@H](O)[C@H](O)C[C@H](O)C[C@](O)(C[C@H](O)[C@H]1C(O)=O)O2

> <INCHI_IDENTIFIER>
InChI=1S/C47H73NO17/c1-27-17-15-13-11-9-7-5-6-8-10-12-14-16-18-34(64-46-44(58)41(48)43(57)30(4)63-46)24-38-40(45(59)60)37(54)26-47(61,65-38)25-33(51)22-36(53)35(52)20-19-31(49)21-32(50)23-39(55)62-29(3)28(2)42(27)56/h5-18,27-38,40-44,46,49-54,56-58,61H,19-26,48H2,1-4H3,(H,59,60)/b6-5+,9-7+,10-8+,13-11+,14-12+,17-15+,18-16+/t27-,28-,29-,30+,31+,32+,33-,34-,35+,36+,37-,38-,40+,41-,42+,43+,44-,46-,47+/m0/s1

> <INCHI_KEY>
APKFDSVGJQXUKY-INPOYWNPSA-N

> <FORMULA>
C47H73NO17

> <MOLECULAR_WEIGHT>
924.079

> <EXACT_MASS>
923.487849915

> <JCHEM_ACCEPTOR_COUNT>
17

> <JCHEM_AVERAGE_POLARIZABILITY>
99.44733295400422

> <JCHEM_BIOAVAILABILITY>
0

> <JCHEM_DONOR_COUNT>
12

> <JCHEM_FORMAL_CHARGE>
0

> <JCHEM_GHOSE_FILTER>
0

> <JCHEM_IUPAC>
(1R,3S,5R,6R,9R,11R,15S,16R,17R,18S,19E,21E,23E,25E,27E,29E,31E,33R,35S,36R,37S)-33-{[(2R,3S,4S,5S,6R)-4-amino-3,5-dihydroxy-6-methyloxan-2-yl]oxy}-1,3,5,6,9,11,17,37-octahydroxy-15,16,18-trimethyl-13-oxo-14,39-dioxabicyclo[33.3.1]nonatriaconta-19,21,23,25,27,29,31-heptaene-36-carboxylic acid

> <ALOGPS_LOGP>
-0.66

> <JCHEM_LOGP>
-2.3001616917873178

> <ALOGPS_LOGS>
-4.05

> <JCHEM_MDDR_LIKE_RULE>
0

> <JCHEM_NUMBER_OF_RINGS>
3

> <JCHEM_PHYSIOLOGICAL_CHARGE>
0

> <JCHEM_PKA>
11.826572360496307

> <JCHEM_PKA_STRONGEST_ACIDIC>
3.579739281930252

> <JCHEM_PKA_STRONGEST_BASIC>
9.113099822252716

> <JCHEM_POLAR_SURFACE_AREA>
319.61

> <JCHEM_REFRACTIVITY>
244.6705000000001

> <JCHEM_ROTATABLE_BOND_COUNT>
3

> <JCHEM_RULE_OF_FIVE>
0

> <ALOGPS_SOLUBILITY>
8.19e-02 g/l

> <JCHEM_TRADITIONAL_IUPAC>
amphotericin B

> <JCHEM_VEBER_RULE>
0

> <DRUGBANK_ID>
DB00681

> <SECONDARY_ACCESSION_NUMBERS>
APRD00797

> <DRUG_GROUPS>
approved; investigational

> <GENERIC_NAME>
Amphotericin B

> <SYNONYMS>
Amfotericina B; AMPH-b; Amphotericin B; Amphotéricine B; Amphotericinum B; Liposomal amphotericin B

> <PRODUCTS>
Abelcet; AmBisome; Amphotec; Amphotec 100 mg; Amphotec 50 mg; Amphotericin B; Amphotericin B for Injection, USP; Fungizone

> <INTERNATIONAL_BRANDS>
Abelect; Ampho-Moronal; Amphocil; Amphocin; Amphotericin; Fungilin; Fungisome; Fungizone Intravenous; Halizon

> <SALTS>
Amphotericin B Cholesteryl Sulfate Complex; Corifungin

$$$$
73342
  -OEChem-10051719223D

 43 45  0     1  0  0  0  0  0999 V2000
    0.5433    2.0240   -0.9393 N   0  0  1  0  0  0  0  0  0  0  0  0
    0.7237    1.3523    0.3464 C   0  0  0  0  0  0  0  0  0  0  0  0
    2.1049    0.7959    0.5043 C   0  0  0  0  0  0  0  0  0  0  0  0
    2.4339   -0.5073    0.0974 C   0  0  0  0  0  0  0  0  0  0  0  0
    3.7580   -0.9744    0.2748 C   0  0  0  0  0  0  0  0  0  0  0  0
   -0.8324    2.5008   -1.0792 C   0  0  0  0  0  0  0  0  0  0  0  0
    3.0677    1.6269    1.0780 C   0  0  0  0  0  0  0  0  0  0  0  0
    1.4847    3.1356   -1.0726 C   0  0  0  0  0  0  0  0  0  0  0  0
    1.4776   -1.3574   -0.4817 C   0  0  0  0  0  0  0  0  0  0  0  0
    4.7142   -0.1243    0.8539 C   0  0  0  0  0  0  0  0  0  0  0  0
    4.3699    1.1676    1.2524 C   0  0  0  0  0  0  0  0  0  0  0  0
    4.0869   -2.2776   -0.1322 C   0  0  0  0  0  0  0  0  0  0  0  0
   -1.8197    1.3793   -0.9464 C   0  0  0  0  0  0  0  0  0  0  0  0
    1.8219   -2.6494   -0.8803 C   0  0  0  0  0  0  0  0  0  0  0  0
    3.1240   -3.1086   -0.7058 C   0  0  0  0  0  0  0  0  0  0  0  0
   -2.7754    1.3477   -0.0041 C   0  0  0  0  0  0  0  0  0  0  0  0
   -3.7761    0.2793    0.1560 C   0  0  0  0  0  0  0  0  0  0  0  0
   -3.5372   -0.9651   -0.4056 C   0  0  0  0  0  0  0  0  0  0  0  0
   -4.9386    0.5378    0.8652 C   0  0  0  0  0  0  0  0  0  0  0  0
   -4.4851   -1.9771   -0.2543 C   0  0  0  0  0  0  0  0  0  0  0  0
   -5.8865   -0.4744    1.0164 C   0  0  0  0  0  0  0  0  0  0  0  0
   -5.6597   -1.7317    0.4567 C   0  0  0  0  0  0  0  0  0  0  0  0
   -0.0014    0.5542    0.5313 H   0  0  0  0  0  0  0  0  0  0  0  0
    0.5309    2.0588    1.1690 H   0  0  0  0  0  0  0  0  0  0  0  0
   -0.9692    2.9384   -2.0761 H   0  0  0  0  0  0  0  0  0  0  0  0
   -1.0459    3.2957   -0.3518 H   0  0  0  0  0  0  0  0  0  0  0  0
    2.8211    2.6310    1.4128 H   0  0  0  0  0  0  0  0  0  0  0  0
    1.4430    3.8329   -0.2280 H   0  0  0  0  0  0  0  0  0  0  0  0
    1.2558    3.7124   -1.9776 H   0  0  0  0  0  0  0  0  0  0  0  0
    2.5125    2.7917   -1.2224 H   0  0  0  0  0  0  0  0  0  0  0  0
    0.4512   -1.0539   -0.6617 H   0  0  0  0  0  0  0  0  0  0  0  0
    5.7379   -0.4625    1.0006 H   0  0  0  0  0  0  0  0  0  0  0  0
    5.1181    1.8135    1.7026 H   0  0  0  0  0  0  0  0  0  0  0  0
    5.0986   -2.6575   -0.0058 H   0  0  0  0  0  0  0  0  0  0  0  0
   -1.7354    0.5972   -1.6957 H   0  0  0  0  0  0  0  0  0  0  0  0
    1.0742   -3.2958   -1.3308 H   0  0  0  0  0  0  0  0  0  0  0  0
    3.3918   -4.1140   -1.0172 H   0  0  0  0  0  0  0  0  0  0  0  0
   -2.8444    2.1687    0.7062 H   0  0  0  0  0  0  0  0  0  0  0  0
   -2.6280   -1.2075   -0.9466 H   0  0  0  0  0  0  0  0  0  0  0  0
   -5.1304    1.5124    1.3061 H   0  0  0  0  0  0  0  0  0  0  0  0
   -4.3067   -2.9580   -0.6853 H   0  0  0  0  0  0  0  0  0  0  0  0
   -6.8013   -0.2836    1.5701 H   0  0  0  0  0  0  0  0  0  0  0  0
   -6.3972   -2.5201    0.5756 H   0  0  0  0  0  0  0  0  0  0  0  0
  1  2  1  0  0  0  0
  1  6  1  0  0  0  0
  1  8  1  0  0  0  0
  2  3  1  0  0  0  0
  2 23  1  0  0  0  0
  2 24  1  0  0  0  0
  3  4  1  0  0  0  0
  3  7  2  0  0  0  0
  4  5  1  0  0  0  0
  4  9  2  0  0  0  0
  5 10  1  0  0  0  0
  5 12  2  0  0  0  0
  6 13  1  0  0  0  0
  6 25  1  0  0  0  0
  6 26  1  0  0  0  0
  7 11  1  0  0  0  0
  7 27  1  0  0  0  0
  8 28  1  0  0  0  0
  8 29  1  0  0  0  0
  8 30  1  0  0  0  0
  9 14  1  0  0  0  0
  9 31  1  0  0  0  0
 10 11  2  0  0  0  0
 10 32  1  0  0  0  0
 11 33  1  0  0  0  0
 12 15  1  0  0  0  0
 12 34  1  0  0  0  0
 13 16  2  0  0  0  0
 13 35  1  0  0  0  0
 14 15  2  0  0  0  0
 14 36  1  0  0  0  0
 15 37  1  0  0  0  0
 16 17  1  0  0  0  0
 16 38  1  0  0  0  0
 17 18  2  0  0  0  0
 17 19  1  0  0  0  0
 18 20  1  0  0  0  0
 18 39  1  0  0  0  0
 19 21  2  0  0  0  0
 19 40  1  0  0  0  0
 20 22  2  0  0  0  0
 20 41  1  0  0  0  0
 21 22  1  0  0  0  0
 21 42  1  0  0  0  0
 22 43  1  0  0  0  0
M  END
> <DATABASE_ID>
DB00735

> <DATABASE_NAME>
drugbank

> <ORIGINAL_SOURCE>
PUBCHEM

> <ORIGINAL_SOURCE_URL>
https://pubchem.ncbi.nlm.nih.gov/rest/pug/compound/inchikey/OZGNYLLQHRPOBR-UHFFFAOYSA-N/SDF?record_type=3d

> <SMILES>
CN(CC=CC1=CC=CC=C1)CC1=CC=CC2=CC=CC=C12

> <INCHI_IDENTIFIER>
InChI=1S/C21H21N/c1-22(16-8-11-18-9-3-2-4-10-18)17-20-14-7-13-19-12-5-6-15-21(19)20/h2-15H,16-17H2,1H3

> <INCHI_KEY>
OZGNYLLQHRPOBR-UHFFFAOYSA-N

> <FORMULA>
C21H21N

> <MOLECULAR_WEIGHT>
287.3981

> <EXACT_MASS>
287.167399677

> <JCHEM_ACCEPTOR_COUNT>
1

> <JCHEM_AVERAGE_POLARIZABILITY>
34.04545714727199

> <JCHEM_BIOAVAILABILITY>
1

> <JCHEM_DONOR_COUNT>
0

> <JCHEM_FORMAL_CHARGE>
0

> <JCHEM_GHOSE_FILTER>
1

> <JCHEM_IUPAC>
methyl(naphthalen-1-ylmethyl)(3-phenylprop-2-en-1-yl)amine

> <ALOGPS_LOGP>
4.96

> <JCHEM_LOGP>
5.238508130333333

> <ALOGPS_LOGS>
-6.10

> <JCHEM_MDDR_LIKE_RULE>
0

> <JCHEM_NUMBER_OF_RINGS>
3

> <JCHEM_PHYSIOLOGICAL_CHARGE>
1

> <JCHEM_PKA_STRONGEST_BASIC>
9.076115733353172

> <JCHEM_POLAR_SURFACE_AREA>
3.24

> <JCHEM_REFRACTIVITY>
95.98210000000003

> <JCHEM_ROTATABLE_BOND_COUNT>
5

> <JCHEM_RULE_OF_FIVE>
0

> <ALOGPS_SOLUBILITY>
2.29e-04 g/l

> <JCHEM_TRADITIONAL_IUPAC>
naftin

> <JCHEM_VEBER_RULE>
1

$$$$
4735
  -OEChem-10051719223D

 49 50  0     0  0  0  0  0  0999 V2000
    3.6669    1.6417   -0.1035 O   0  0  0  0  0  0  0  0  0  0  0  0
   -3.6640    1.6313   -0.1582 O   0  0  0  0  0  0  0  0  0  0  0  0
    9.1993   -1.3605    1.3072 N   0  0  0  0  0  0  0  0  0  0  0  0
   -8.5761   -2.5251   -0.6091 N   0  0  0  0  0  0  0  0  0  0  0  0
    8.5360   -2.4390   -0.6569 N   0  0  0  0  0  0  0  0  0  0  0  0
   -9.1446   -1.2890    1.2908 N   0  0  0  0  0  0  0  0  0  0  0  0
   -0.0035    1.0239   -0.7507 C   0  0  0  0  0  0  0  0  0  0  0  0
    1.2554    1.6400   -0.1334 C   0  0  0  0  0  0  0  0  0  0  0  0
   -1.2696    1.6515   -0.1705 C   0  0  0  0  0  0  0  0  0  0  0  0
    2.5323    1.0519   -0.7215 C   0  0  0  0  0  0  0  0  0  0  0  0
   -2.5268    1.0158   -0.7470 C   0  0  0  0  0  0  0  0  0  0  0  0
    4.7951    0.8679   -0.0131 C   0  0  0  0  0  0  0  0  0  0  0  0
   -4.7936    0.8631   -0.0444 C   0  0  0  0  0  0  0  0  0  0  0  0
    5.0539   -0.1033   -0.9803 C   0  0  0  0  0  0  0  0  0  0  0  0
   -5.6903    1.0920    0.9993 C   0  0  0  0  0  0  0  0  0  0  0  0
    5.6852    1.0535    1.0448 C   0  0  0  0  0  0  0  0  0  0  0  0
   -5.0476   -0.1459   -0.9736 C   0  0  0  0  0  0  0  0  0  0  0  0
    7.0927   -0.7038    0.1682 C   0  0  0  0  0  0  0  0  0  0  0  0
   -7.0948   -0.6972    0.1848 C   0  0  0  0  0  0  0  0  0  0  0  0
    6.2027   -0.8891   -0.8896 C   0  0  0  0  0  0  0  0  0  0  0  0
   -6.8409    0.3118    1.1139 C   0  0  0  0  0  0  0  0  0  0  0  0
    6.8339    0.2675    1.1355 C   0  0  0  0  0  0  0  0  0  0  0  0
   -6.1981   -0.9260   -0.8589 C   0  0  0  0  0  0  0  0  0  0  0  0
    8.2910   -1.5225    0.2627 C   0  0  0  0  0  0  0  0  0  0  0  0
   -8.2947   -1.5104    0.3037 C   0  0  0  0  0  0  0  0  0  0  0  0
    0.0122    1.1670   -1.8380 H   0  0  0  0  0  0  0  0  0  0  0  0
   -0.0081   -0.0571   -0.5660 H   0  0  0  0  0  0  0  0  0  0  0  0
    1.2575    2.7267   -0.2844 H   0  0  0  0  0  0  0  0  0  0  0  0
    1.2545    1.4893    0.9534 H   0  0  0  0  0  0  0  0  0  0  0  0
   -1.2787    1.5455    0.9216 H   0  0  0  0  0  0  0  0  0  0  0  0
   -1.2835    2.7308   -0.3671 H   0  0  0  0  0  0  0  0  0  0  0  0
    2.5009   -0.0329   -0.5548 H   0  0  0  0  0  0  0  0  0  0  0  0
    2.5706    1.2492   -1.7992 H   0  0  0  0  0  0  0  0  0  0  0  0
   -2.4895   -0.0592   -0.5276 H   0  0  0  0  0  0  0  0  0  0  0  0
   -2.5593    1.1646   -1.8325 H   0  0  0  0  0  0  0  0  0  0  0  0
    4.4019   -0.2599   -1.8345 H   0  0  0  0  0  0  0  0  0  0  0  0
   -5.4973    1.8769    1.7254 H   0  0  0  0  0  0  0  0  0  0  0  0
    5.4881    1.8090    1.8005 H   0  0  0  0  0  0  0  0  0  0  0  0
   -4.3897   -0.3374   -1.8162 H   0  0  0  0  0  0  0  0  0  0  0  0
    6.3776   -1.6322   -1.6629 H   0  0  0  0  0  0  0  0  0  0  0  0
   -7.5181    0.5165    1.9385 H   0  0  0  0  0  0  0  0  0  0  0  0
    7.4917    0.4532    1.9773 H   0  0  0  0  0  0  0  0  0  0  0  0
   -6.3506   -1.6922   -1.6111 H   0  0  0  0  0  0  0  0  0  0  0  0
   10.0307   -1.9406    1.3550 H   0  0  0  0  0  0  0  0  0  0  0  0
    9.0890   -0.6835    2.0517 H   0  0  0  0  0  0  0  0  0  0  0  0
   -9.4197   -3.0806   -0.5104 H   0  0  0  0  0  0  0  0  0  0  0  0
   -7.9803   -2.7613   -1.3927 H   0  0  0  0  0  0  0  0  0  0  0  0
    9.4185   -2.9056   -0.4196 H   0  0  0  0  0  0  0  0  0  0  0  0
   -9.9196   -1.9558    1.2041 H   0  0  0  0  0  0  0  0  0  0  0  0
  1 10  1  0  0  0  0
  1 12  1  0  0  0  0
  2 11  1  0  0  0  0
  2 13  1  0  0  0  0
  3 24  1  0  0  0  0
  3 44  1  0  0  0  0
  3 45  1  0  0  0  0
  4 25  1  0  0  0  0
  4 46  1  0  0  0  0
  4 47  1  0  0  0  0
  5 24  2  0  0  0  0
  5 48  1  0  0  0  0
  6 25  2  0  0  0  0
  6 49  1  0  0  0  0
  7  8  1  0  0  0  0
  7  9  1  0  0  0  0
  7 26  1  0  0  0  0
  7 27  1  0  0  0  0
  8 10  1  0  0  0  0
  8 28  1  0  0  0  0
  8 29  1  0  0  0  0
  9 11  1  0  0  0  0
  9 30  1  0  0  0  0
  9 31  1  0  0  0  0
 10 32  1  0  0  0  0
 10 33  1  0  0  0  0
 11 34  1  0  0  0  0
 11 35  1  0  0  0  0
 12 14  2  0  0  0  0
 12 16  1  0  0  0  0
 13 15  2  0  0  0  0
 13 17  1  0  0  0  0
 14 20  1  0  0  0  0
 14 36  1  0  0  0  0
 15 21  1  0  0  0  0
 15 37  1  0  0  0  0
 16 22  2  0  0  0  0
 16 38  1  0  0  0  0
 17 23  2  0  0  0  0
 17 39  1  0  0  0  0
 18 20  2  0  0  0  0
 18 22  1  0  0  0  0
 18 24  1  0  0  0  0
 19 21  2  0  0  0  0
 19 23  1  0  0  0  0
 19 25  1  0  0  0  0
 20 40  1  0  0  0  0
 21 41  1  0  0  0  0
 22 42  1  0  0  0  0
 23 43  1  0  0  0  0
M  END
> <DATABASE_ID>
DB00738

> <DATABASE_NAME>
drugbank

> <ORIGINAL_SOURCE>
PUBCHEM

> <ORIGINAL_SOURCE_URL>
https://pubchem.ncbi.nlm.nih.gov/rest/pug/compound/inchikey/XDRYMKDFEDOLFX-UHFFFAOYSA-N/SDF?record_type=3d

> <SMILES>
NC(=N)C1=CC=C(OCCCCCOC2=CC=C(C=C2)C(N)=N)C=C1

> <INCHI_IDENTIFIER>
InChI=1S/C19H24N4O2/c20-18(21)14-4-8-16(9-5-14)24-12-2-1-3-13-25-17-10-6-15(7-11-17)19(22)23/h4-11H,1-3,12-13H2,(H3,20,21)(H3,22,23)

> <INCHI_KEY>
XDRYMKDFEDOLFX-UHFFFAOYSA-N

> <FORMULA>
C19H24N4O2

> <MOLECULAR_WEIGHT>
340.4195

> <EXACT_MASS>
340.189926032

> <JCHEM_ACCEPTOR_COUNT>
6

> <JCHEM_AVERAGE_POLARIZABILITY>
38.85340776240597

> <JCHEM_BIOAVAILABILITY>
1

> <JCHEM_DONOR_COUNT>
4

> <JCHEM_FORMAL_CHARGE>
0

> <JCHEM_GHOSE_FILTER>
1

> <JCHEM_IUPAC>
4-{[5-(4-carbamimidoylphenoxy)pentyl]oxy}benzene-1-carboximidamide

> <ALOGPS_LOGP>
1.32

> <JCHEM_LOGP>
2.322452181

> <ALOGPS_LOGS>
-4.16

> <JCHEM_MDDR_LIKE_RULE>
0

> <JCHEM_NUMBER_OF_RINGS>
2

> <JCHEM_PHYSIOLOGICAL_CHARGE>
2

> <JCHEM_PKA_STRONGEST_BASIC>
12.127523837671355

> <JCHEM_POLAR_SURFACE_AREA>
118.19999999999999

> <JCHEM_REFRACTIVITY>
120.52940000000001

> <JCHEM_ROTATABLE_BOND_COUNT>
10

> <JCHEM_RULE_OF_FIVE>
1

> <ALOGPS_SOLUBILITY>
2.36e-02 g/l

> <JCHEM_TRADITIONAL_IUPAC>
pentamidine

> <JCHEM_VEBER_RULE>
0

$$$$
3561
  -OEChem-10051719233D

 18 18  0     0  0  0  0  0  0999 V2000
   -6.4046   -0.2263    0.2352 I   0  0  0  0  0  0  0  0  0  0  0  0
   -0.3371   -2.6518   -0.2149 Cl  0  0  0  0  0  0  0  0  0  0  0  0
    3.4260    2.3244    0.0127 Cl  0  0  0  0  0  0  0  0  0  0  0  0
    4.5745   -0.6524    0.5584 Cl  0  0  0  0  0  0  0  0  0  0  0  0
   -1.1099    0.2167   -0.6750 O   0  0  0  0  0  0  0  0  0  0  0  0
    0.2063    0.0077   -0.3879 C   0  0  0  0  0  0  0  0  0  0  0  0
    0.7008   -1.2752   -0.1526 C   0  0  0  0  0  0  0  0  0  0  0  0
    1.0634    1.1067   -0.3323 C   0  0  0  0  0  0  0  0  0  0  0  0
    2.4152    0.9227   -0.0416 C   0  0  0  0  0  0  0  0  0  0  0  0
    2.0526   -1.4590    0.1383 C   0  0  0  0  0  0  0  0  0  0  0  0
    2.9098   -0.3601    0.1938 C   0  0  0  0  0  0  0  0  0  0  0  0
   -1.8419    1.0544    0.2168 C   0  0  0  0  0  0  0  0  0  0  0  0
   -3.2495    0.6580    0.2219 C   0  0  0  0  0  0  0  0  0  0  0  0
   -4.4055    0.3343    0.2271 C   0  0  0  0  0  0  0  0  0  0  0  0
    0.6789    2.1055   -0.5257 H   0  0  0  0  0  0  0  0  0  0  0  0
    2.4365   -2.4605    0.3217 H   0  0  0  0  0  0  0  0  0  0  0  0
   -1.4415    0.9827    1.2360 H   0  0  0  0  0  0  0  0  0  0  0  0
   -1.7483    2.0931   -0.1189 H   0  0  0  0  0  0  0  0  0  0  0  0
  1 14  1  0  0  0  0
  2  7  1  0  0  0  0
  3  9  1  0  0  0  0
  4 11  1  0  0  0  0
  5  6  1  0  0  0  0
  5 12  1  0  0  0  0
  6  7  1  0  0  0  0
  6  8  2  0  0  0  0
  7 10  2  0  0  0  0
  8  9  1  0  0  0  0
  8 15  1  0  0  0  0
  9 11  2  0  0  0  0
 10 11  1  0  0  0  0
 10 16  1  0  0  0  0
 12 13  1  0  0  0  0
 12 17  1  0  0  0  0
 12 18  1  0  0  0  0
 13 14  3  0  0  0  0
M  END
> <DATABASE_ID>
DB00793

> <DATABASE_NAME>
drugbank

> <ORIGINAL_SOURCE>
PUBCHEM

> <ORIGINAL_SOURCE_URL>
https://pubchem.ncbi.nlm.nih.gov/rest/pug/compound/inchikey/CTETYYAZBPJBHE-UHFFFAOYSA-N/SDF?record_type=3d

> <SMILES>
ClC1=CC(Cl)=C(Cl)C=C1OCC#CI

> <INCHI_IDENTIFIER>
InChI=1S/C9H4Cl3IO/c10-6-4-8(12)9(5-7(6)11)14-3-1-2-13/h4-5H,3H2

> <INCHI_KEY>
CTETYYAZBPJBHE-UHFFFAOYSA-N

> <FORMULA>
C9H4Cl3IO

> <MOLECULAR_WEIGHT>
361.391

> <EXACT_MASS>
359.837241291

> <JCHEM_ACCEPTOR_COUNT>
1

> <JCHEM_AVERAGE_POLARIZABILITY>
26.81779081943042

> <JCHEM_BIOAVAILABILITY>
1

> <JCHEM_DONOR_COUNT>
0

> <JCHEM_FORMAL_CHARGE>
0

> <JCHEM_GHOSE_FILTER>
0

> <JCHEM_IUPAC>
1,2,4-trichloro-5-[(3-iodoprop-2-yn-1-yl)oxy]benzene

> <ALOGPS_LOGP>
4.69

> <JCHEM_LOGP>
4.8453

> <ALOGPS_LOGS>
-4.78

> <JCHEM_MDDR_LIKE_RULE>
0

> <JCHEM_NUMBER_OF_RINGS>
1

> <JCHEM_PHYSIOLOGICAL_CHARGE>
0

> <JCHEM_PKA_STRONGEST_BASIC>
-4.962264068206132

> <JCHEM_POLAR_SURFACE_AREA>
9.23

> <JCHEM_REFRACTIVITY>
66.87900000000002

> <JCHEM_ROTATABLE_BOND_COUNT>
3

> <JCHEM_RULE_OF_FIVE>
1

> <ALOGPS_SOLUBILITY>
6.01e-03 g/l

> <JCHEM_TRADITIONAL_IUPAC>
haloprogin

> <JCHEM_VEBER_RULE>
1

$$$$
5284447
  -OEChem-10051719243D

 94 97  0     1  0  0  0  0  0999 V2000
    1.0717   -2.4370   -0.7728 O   0  0  0  0  0  0  0  0  0  0  0  0
   -5.0762   -1.3934   -3.0086 O   0  0  0  0  0  0  0  0  0  0  0  0
    0.0813   -4.5780   -0.6133 O   0  0  0  0  0  0  0  0  0  0  0  0
    0.9329   -2.8276    3.3392 O   0  0  0  0  0  0  0  0  0  0  0  0
    4.5395    0.0750   -1.4944 O   0  0  0  0  0  0  0  0  0  0  0  0
   -3.1709   -3.2724    0.3256 O   0  0  0  0  0  0  0  0  0  0  0  0
    4.8595    1.7851    0.0799 O   0  0  0  0  0  0  0  0  0  0  0  0
    4.1704   -1.9682    2.6359 O   0  0  0  0  0  0  0  0  0  0  0  0
    3.9719   -4.1321    1.9473 O   0  0  0  0  0  0  0  0  0  0  0  0
    6.1130    2.1905   -2.4733 O   0  0  0  0  0  0  0  0  0  0  0  0
    7.8567    3.5299    1.2857 O   0  0  0  0  0  0  0  0  0  0  0  0
   -7.2033    1.8154    0.3056 O   0  0  0  0  0  0  0  0  0  0  0  0
   -7.7652    0.5394    2.1420 O   0  0  0  0  0  0  0  0  0  0  0  0
    8.7052    2.6521   -1.3801 N   0  0  0  0  0  0  0  0  0  0  0  0
   -0.0505   -3.1933   -0.2898 C   0  0  1  0  0  0  0  0  0  0  0  0
    2.3256   -2.7647   -0.1671 C   0  0  2  0  0  0  0  0  0  0  0  0
    2.2811   -2.5098    1.3462 C   0  0  1  0  0  0  0  0  0  0  0  0
   -0.1989   -2.9804    1.2213 C   0  0  0  0  0  0  0  0  0  0  0  0
    1.1001   -3.2482    1.9854 C   0  0  2  0  0  0  0  0  0  0  0  0
   -1.2676   -2.6501   -1.0819 C   0  0  0  0  0  0  0  0  0  0  0  0
   -2.5786   -3.4461   -0.9555 C   0  0  2  0  0  0  0  0  0  0  0  0
   -4.1942   -1.7250   -1.9257 C   0  0  2  0  0  0  0  0  0  0  0  0
   -3.5910   -3.0949   -2.0560 C   0  0  0  0  0  0  0  0  0  0  0  0
    3.4348   -1.9852   -0.9068 C   0  0  0  0  0  0  0  0  0  0  0  0
   -5.6859   -1.5551   -1.7183 C   0  0  1  0  0  0  0  0  0  0  0  0
    3.4560   -0.4557   -0.7280 C   0  0  2  0  0  0  0  0  0  0  0  0
    3.5499   -2.9861    1.9907 C   0  0  0  0  0  0  0  0  0  0  0  0
    5.4870    0.7358   -0.6599 C   0  0  2  0  0  0  0  0  0  0  0  0
    6.6433    1.2876   -1.4984 C   0  0  2  0  0  0  0  0  0  0  0  0
    7.6506    2.0091   -0.5924 C   0  0  2  0  0  0  0  0  0  0  0  0
    6.9461    3.0422    0.3029 C   0  0  1  0  0  0  0  0  0  0  0  0
   -6.1769   -0.4095   -0.9400 C   0  0  0  0  0  0  0  0  0  0  0  0
    5.7462    2.4012    1.0189 C   0  0  1  0  0  0  0  0  0  0  0  0
    2.2017    0.2112   -1.2117 C   0  0  0  0  0  0  0  0  0  0  0  0
    4.9394    3.4356    1.7979 C   0  0  0  0  0  0  0  0  0  0  0  0
   -6.7989   -0.4951    0.2460 C   0  0  0  0  0  0  0  0  0  0  0  0
    1.3653    0.8797   -0.4041 C   0  0  0  0  0  0  0  0  0  0  0  0
   -7.3106    0.6634    1.0129 C   0  0  0  0  0  0  0  0  0  0  0  0
    0.1088    1.4315   -0.8538 C   0  0  0  0  0  0  0  0  0  0  0  0
   -0.7577    2.0301   -0.0237 C   0  0  0  0  0  0  0  0  0  0  0  0
   -7.5684    3.0533    0.9600 C   0  0  1  0  0  0  0  0  0  0  0  0
   -6.6315    4.1469    0.4299 C   0  0  0  0  0  0  0  0  0  0  0  0
   -2.0542    2.5039   -0.4517 C   0  0  0  0  0  0  0  0  0  0  0  0
   -9.0214    3.3631    0.6229 C   0  0  0  0  0  0  0  0  0  0  0  0
   -5.2120    3.8609    0.8376 C   0  0  0  0  0  0  0  0  0  0  0  0
   -2.9476    3.0397    0.3929 C   0  0  0  0  0  0  0  0  0  0  0  0
   -4.2767    3.4256   -0.0194 C   0  0  0  0  0  0  0  0  0  0  0  0
    2.5183   -3.8294   -0.3578 H   0  0  0  0  0  0  0  0  0  0  0  0
    2.1468   -1.4415    1.5528 H   0  0  0  0  0  0  0  0  0  0  0  0
   -0.9810   -3.6279    1.6340 H   0  0  0  0  0  0  0  0  0  0  0  0
   -0.5063   -1.9456    1.4239 H   0  0  0  0  0  0  0  0  0  0  0  0
    1.2925   -4.3284    2.0033 H   0  0  0  0  0  0  0  0  0  0  0  0
   -0.9853   -2.6266   -2.1440 H   0  0  0  0  0  0  0  0  0  0  0  0
   -1.4300   -1.6042   -0.7918 H   0  0  0  0  0  0  0  0  0  0  0  0
   -2.3556   -4.5139   -1.0591 H   0  0  0  0  0  0  0  0  0  0  0  0
   -3.5035   -0.9521   -1.6214 H   0  0  0  0  0  0  0  0  0  0  0  0
   -4.3965   -3.8400   -2.0308 H   0  0  0  0  0  0  0  0  0  0  0  0
   -3.1116   -3.1870   -3.0381 H   0  0  0  0  0  0  0  0  0  0  0  0
    3.3557   -2.2037   -1.9815 H   0  0  0  0  0  0  0  0  0  0  0  0
    4.4150   -2.3781   -0.6063 H   0  0  0  0  0  0  0  0  0  0  0  0
   -6.2825   -2.4538   -1.5944 H   0  0  0  0  0  0  0  0  0  0  0  0
    3.5985   -0.2514    0.3400 H   0  0  0  0  0  0  0  0  0  0  0  0
   -0.1037   -4.6895   -1.5609 H   0  0  0  0  0  0  0  0  0  0  0  0
    5.8849   -0.0074    0.0456 H   0  0  0  0  0  0  0  0  0  0  0  0
    7.1215    0.4695   -2.0504 H   0  0  0  0  0  0  0  0  0  0  0  0
    8.1403    1.2652    0.0494 H   0  0  0  0  0  0  0  0  0  0  0  0
    0.1803   -3.3206    3.7082 H   0  0  0  0  0  0  0  0  0  0  0  0
    6.6090    3.8885   -0.3103 H   0  0  0  0  0  0  0  0  0  0  0  0
   -6.0203    0.5635   -1.3984 H   0  0  0  0  0  0  0  0  0  0  0  0
    6.0896    1.6423    1.7346 H   0  0  0  0  0  0  0  0  0  0  0  0
   -3.9856   -3.8027    0.3485 H   0  0  0  0  0  0  0  0  0  0  0  0
    1.9598    0.0953   -2.2663 H   0  0  0  0  0  0  0  0  0  0  0  0
    4.0512    2.9688    2.2383 H   0  0  0  0  0  0  0  0  0  0  0  0
    4.5780    4.2299    1.1354 H   0  0  0  0  0  0  0  0  0  0  0  0
    5.5223    3.8877    2.6051 H   0  0  0  0  0  0  0  0  0  0  0  0
    5.0037   -2.2593    3.0636 H   0  0  0  0  0  0  0  0  0  0  0  0
    8.3069    3.4004   -1.9461 H   0  0  0  0  0  0  0  0  0  0  0  0
    9.3662    3.1062   -0.7503 H   0  0  0  0  0  0  0  0  0  0  0  0
   -6.9493   -1.4660    0.7097 H   0  0  0  0  0  0  0  0  0  0  0  0
    6.8446    2.4476   -3.0595 H   0  0  0  0  0  0  0  0  0  0  0  0
    1.6057    0.9811    0.6512 H   0  0  0  0  0  0  0  0  0  0  0  0
    7.4675    4.3274    1.6818 H   0  0  0  0  0  0  0  0  0  0  0  0
   -0.1405    1.3069   -1.9052 H   0  0  0  0  0  0  0  0  0  0  0  0
   -0.5133    2.1404    1.0306 H   0  0  0  0  0  0  0  0  0  0  0  0
   -7.4521    2.9634    2.0477 H   0  0  0  0  0  0  0  0  0  0  0  0
   -6.9211    5.1262    0.8281 H   0  0  0  0  0  0  0  0  0  0  0  0
   -6.7049    4.2042   -0.6636 H   0  0  0  0  0  0  0  0  0  0  0  0
   -2.3083    2.3715   -1.5011 H   0  0  0  0  0  0  0  0  0  0  0  0
   -9.1693    3.4206   -0.4611 H   0  0  0  0  0  0  0  0  0  0  0  0
   -9.6786    2.5666    0.9875 H   0  0  0  0  0  0  0  0  0  0  0  0
   -9.3399    4.3086    1.0722 H   0  0  0  0  0  0  0  0  0  0  0  0
   -4.9767    3.9721    1.8937 H   0  0  0  0  0  0  0  0  0  0  0  0
   -2.7008    3.1567    1.4457 H   0  0  0  0  0  0  0  0  0  0  0  0
   -4.5310    3.2970   -1.0687 H   0  0  0  0  0  0  0  0  0  0  0  0
  1 15  1  0  0  0  0
  1 16  1  0  0  0  0
  2 22  1  0  0  0  0
  2 25  1  0  0  0  0
  3 15  1  0  0  0  0
  3 63  1  0  0  0  0
  4 19  1  0  0  0  0
  4 67  1  0  0  0  0
  5 26  1  0  0  0  0
  5 28  1  0  0  0  0
  6 21  1  0  0  0  0
  6 71  1  0  0  0  0
  7 28  1  0  0  0  0
  7 33  1  0  0  0  0
  8 27  1  0  0  0  0
  8 76  1  0  0  0  0
  9 27  2  0  0  0  0
 10 29  1  0  0  0  0
 10 80  1  0  0  0  0
 11 31  1  0  0  0  0
 11 82  1  0  0  0  0
 12 38  1  0  0  0  0
 12 41  1  0  0  0  0
 13 38  2  0  0  0  0
 14 30  1  0  0  0  0
 14 77  1  0  0  0  0
 14 78  1  0  0  0  0
 15 18  1  0  0  0  0
 15 20  1  0  0  0  0
 16 17  1  0  0  0  0
 16 24  1  0  0  0  0
 16 48  1  0  0  0  0
 17 19  1  0  0  0  0
 17 27  1  0  0  0  0
 17 49  1  0  0  0  0
 18 19  1  0  0  0  0
 18 50  1  0  0  0  0
 18 51  1  0  0  0  0
 19 52  1  0  0  0  0
 20 21  1  0  0  0  0
 20 53  1  0  0  0  0
 20 54  1  0  0  0  0
 21 23  1  0  0  0  0
 21 55  1  0  0  0  0
 22 23  1  0  0  0  0
 22 25  1  0  0  0  0
 22 56  1  0  0  0  0
 23 57  1  0  0  0  0
 23 58  1  0  0  0  0
 24 26  1  0  0  0  0
 24 59  1  0  0  0  0
 24 60  1  0  0  0  0
 25 32  1  0  0  0  0
 25 61  1  0  0  0  0
 26 34  1  0  0  0  0
 26 62  1  0  0  0  0
 28 29  1  0  0  0  0
 28 64  1  0  0  0  0
 29 30  1  0  0  0  0
 29 65  1  0  0  0  0
 30 31  1  0  0  0  0
 30 66  1  0  0  0  0
 31 33  1  0  0  0  0
 31 68  1  0  0  0  0
 32 36  2  0  0  0  0
 32 69  1  0  0  0  0
 33 35  1  0  0  0  0
 33 70  1  0  0  0  0
 34 37  2  0  0  0  0
 34 72  1  0  0  0  0
 35 73  1  0  0  0  0
 35 74  1  0  0  0  0
 35 75  1  0  0  0  0
 36 38  1  0  0  0  0
 36 79  1  0  0  0  0
 37 39  1  0  0  0  0
 37 81  1  0  0  0  0
 39 40  2  0  0  0  0
 39 83  1  0  0  0  0
 40 43  1  0  0  0  0
 40 84  1  0  0  0  0
 41 42  1  0  0  0  0
 41 44  1  0  0  0  0
 41 85  1  0  0  0  0
 42 45  1  0  0  0  0
 42 86  1  0  0  0  0
 42 87  1  0  0  0  0
 43 46  2  0  0  0  0
 43 88  1  0  0  0  0
 44 89  1  0  0  0  0
 44 90  1  0  0  0  0
 44 91  1  0  0  0  0
 45 47  2  0  0  0  0
 45 92  1  0  0  0  0
 46 47  1  0  0  0  0
 46 93  1  0  0  0  0
 47 94  1  0  0  0  0
M  END
> <DATABASE_ID>
DB00826

> <DATABASE_NAME>
drugbank

> <ORIGINAL_SOURCE>
PUBCHEM

> <ORIGINAL_SOURCE_URL>
https://pubchem.ncbi.nlm.nih.gov/rest/pug/compound/inchikey/NCXMLFZGDNKEPB-FFPOYIOWSA-N/SDF?record_type=3d

> <SMILES>
[H][C@@]12C[C@H](O)C[C@]3(O)C[C@H](O)[C@@H](C(O)=O)[C@]([H])(C[C@@H](O[C@]4([H])O[C@H](C)[C@@H](O)[C@H](N)[C@@H]4O)\C=C\C=C\C=C\C=C\C[C@@H](C)OC(=O)\C=C\[C@@]1([H])O2)O3

> <INCHI_IDENTIFIER>
InChI=1S/C33H47NO13/c1-18-10-8-6-4-3-5-7-9-11-21(45-32-30(39)28(34)29(38)19(2)44-32)15-25-27(31(40)41)22(36)17-33(42,47-25)16-20(35)14-24-23(46-24)12-13-26(37)43-18/h3-9,11-13,18-25,27-30,32,35-36,38-39,42H,10,14-17,34H2,1-2H3,(H,40,41)/b4-3+,7-5+,8-6+,11-9+,13-12+/t18-,19-,20+,21+,22+,23-,24-,25+,27-,28+,29-,30+,32+,33-/m1/s1

> <INCHI_KEY>
NCXMLFZGDNKEPB-FFPOYIOWSA-N

> <FORMULA>
C33H47NO13

> <MOLECULAR_WEIGHT>
665.733

> <EXACT_MASS>
665.304740577

> <JCHEM_ACCEPTOR_COUNT>
13

> <JCHEM_ATOM_COUNT>
94

> <JCHEM_AVERAGE_POLARIZABILITY>
68.57872875871091

> <JCHEM_BIOAVAILABILITY>
0

> <JCHEM_DONOR_COUNT>
7

> <JCHEM_FORMAL_CHARGE>
0

> <JCHEM_GHOSE_FILTER>
0

> <JCHEM_IUPAC>
(1R,3S,5R,7R,8E,12R,14E,16E,18E,20E,22R,24S,25R,26S)-22-{[(2R,3S,4S,5S,6R)-4-amino-3,5-dihydroxy-6-methyloxan-2-yl]oxy}-1,3,26-trihydroxy-12-methyl-10-oxo-6,11,28-trioxatricyclo[22.3.1.0⁵,⁷]octacosa-8,14,16,18,20-pentaene-25-carboxylic acid

> <ALOGPS_LOGP>
-3.46

> <JCHEM_LOGP>
-1.694913093638562

> <ALOGPS_LOGS>
-3.38

> <JCHEM_MDDR_LIKE_RULE>
0

> <JCHEM_NUMBER_OF_RINGS>
4

> <JCHEM_PHYSIOLOGICAL_CHARGE>
0

> <JCHEM_PKA>
11.830297037788116

> <JCHEM_PKA_STRONGEST_ACIDIC>
3.579739281946898

> <JCHEM_PKA_STRONGEST_BASIC>
9.113107009890703

> <JCHEM_POLAR_SURFACE_AREA>
230.98999999999995

> <JCHEM_REFRACTIVITY>
169.88260000000005

> <JCHEM_ROTATABLE_BOND_COUNT>
3

> <JCHEM_RULE_OF_FIVE>
0

> <ALOGPS_SOLUBILITY>
2.78e-01 g/l

> <JCHEM_TRADITIONAL_IUPAC>
natamycin

> <JCHEM_VEBER_RULE>
0

$$$$
1549008
  -OEChem-02031917473D

 47 48  0     1  0  0  0  0  0999 V2000
   -0.9064    2.1676   -0.8185 N   0  0  2  0  0  0  0  0  0  0  0  0
   -1.0240    1.4194    0.4340 C   0  0  0  0  0  0  0  0  0  0  0  0
   -2.3358    0.6961    0.5352 C   0  0  0  0  0  0  0  0  0  0  0  0
   -2.4976   -0.6142    0.0617 C   0  0  0  0  0  0  0  0  0  0  0  0
   -3.7599   -1.2416    0.1872 C   0  0  0  0  0  0  0  0  0  0  0  0
    5.4588   -0.9515    0.2910 C   0  0  0  0  0  0  0  0  0  0  0  0
    0.4019    2.8067   -0.9132 C   0  0  0  0  0  0  0  0  0  0  0  0
   -3.3969    1.3815    1.1232 C   0  0  0  0  0  0  0  0  0  0  0  0
   -1.4373   -1.3171   -0.5332 C   0  0  0  0  0  0  0  0  0  0  0  0
   -1.9741    3.1637   -0.9179 C   0  0  0  0  0  0  0  0  0  0  0  0
   -4.8200   -0.5385    0.7826 C   0  0  0  0  0  0  0  0  0  0  0  0
   -4.6381    0.7644    1.2471 C   0  0  0  0  0  0  0  0  0  0  0  0
   -3.9248   -2.5536   -0.2861 C   0  0  0  0  0  0  0  0  0  0  0  0
    6.7938   -0.2846   -0.0689 C   0  0  0  0  0  0  0  0  0  0  0  0
    5.1601   -2.0761   -0.7102 C   0  0  0  0  0  0  0  0  0  0  0  0
    5.5413   -1.5343    1.7088 C   0  0  0  0  0  0  0  0  0  0  0  0
    1.5125    1.8049   -0.8138 C   0  0  0  0  0  0  0  0  0  0  0  0
   -1.6191   -2.6199   -0.9982 C   0  0  0  0  0  0  0  0  0  0  0  0
   -2.8604   -3.2368   -0.8750 C   0  0  0  0  0  0  0  0  0  0  0  0
    4.3757    0.0554    0.2359 C   0  0  0  0  0  0  0  0  0  0  0  0
    2.4552    1.8371    0.1384 C   0  0  0  0  0  0  0  0  0  0  0  0
    3.4951    0.8713    0.1898 C   0  0  0  0  0  0  0  0  0  0  0  0
   -0.9308    2.1048    1.2910 H   0  0  0  0  0  0  0  0  0  0  0  0
   -0.2126    0.7043    0.5983 H   0  0  0  0  0  0  0  0  0  0  0  0
    0.4986    3.3031   -1.8870 H   0  0  0  0  0  0  0  0  0  0  0  0
    0.5133    3.5864   -0.1476 H   0  0  0  0  0  0  0  0  0  0  0  0
   -3.2763    2.3902    1.5091 H   0  0  0  0  0  0  0  0  0  0  0  0
   -0.4512   -0.8867   -0.6755 H   0  0  0  0  0  0  0  0  0  0  0  0
   -1.8030    3.8079   -1.7897 H   0  0  0  0  0  0  0  0  0  0  0  0
   -2.0285    3.8189   -0.0408 H   0  0  0  0  0  0  0  0  0  0  0  0
   -2.9504    2.7072   -1.1057 H   0  0  0  0  0  0  0  0  0  0  0  0
   -5.7986   -1.0015    0.8906 H   0  0  0  0  0  0  0  0  0  0  0  0
   -5.4653    1.2955    1.7091 H   0  0  0  0  0  0  0  0  0  0  0  0
   -4.8863   -3.0555   -0.2003 H   0  0  0  0  0  0  0  0  0  0  0  0
    6.7653    0.1470   -1.0766 H   0  0  0  0  0  0  0  0  0  0  0  0
    7.6186   -1.0054   -0.0374 H   0  0  0  0  0  0  0  0  0  0  0  0
    7.0337    0.5287    0.6265 H   0  0  0  0  0  0  0  0  0  0  0  0
    4.2078   -2.5701   -0.4829 H   0  0  0  0  0  0  0  0  0  0  0  0
    5.0898   -1.6902   -1.7343 H   0  0  0  0  0  0  0  0  0  0  0  0
    5.9452   -2.8405   -0.6942 H   0  0  0  0  0  0  0  0  0  0  0  0
    5.7492   -0.7531    2.4498 H   0  0  0  0  0  0  0  0  0  0  0  0
    4.5988   -2.0145    1.9981 H   0  0  0  0  0  0  0  0  0  0  0  0
    6.3357   -2.2854    1.7834 H   0  0  0  0  0  0  0  0  0  0  0  0
    1.5401    1.0269   -1.5749 H   0  0  0  0  0  0  0  0  0  0  0  0
   -0.7924   -3.1516   -1.4605 H   0  0  0  0  0  0  0  0  0  0  0  0
   -3.0015   -4.2507   -1.2381 H   0  0  0  0  0  0  0  0  0  0  0  0
    2.4431    2.6098    0.9003 H   0  0  0  0  0  0  0  0  0  0  0  0
  1  2  1  0  0  0  0
  1  7  1  0  0  0  0
  1 10  1  0  0  0  0
  2  3  1  0  0  0  0
  2 23  1  0  0  0  0
  2 24  1  0  0  0  0
  3  4  1  0  0  0  0
  3  8  2  0  0  0  0
  4  5  1  0  0  0  0
  4  9  2  0  0  0  0
  5 11  1  0  0  0  0
  5 13  2  0  0  0  0
  6 14  1  0  0  0  0
  6 15  1  0  0  0  0
  6 16  1  0  0  0  0
  6 20  1  0  0  0  0
  7 17  1  0  0  0  0
  7 25  1  0  0  0  0
  7 26  1  0  0  0  0
  8 12  1  0  0  0  0
  8 27  1  0  0  0  0
  9 18  1  0  0  0  0
  9 28  1  0  0  0  0
 10 29  1  0  0  0  0
 10 30  1  0  0  0  0
 10 31  1  0  0  0  0
 11 12  2  0  0  0  0
 11 32  1  0  0  0  0
 12 33  1  0  0  0  0
 13 19  1  0  0  0  0
 13 34  1  0  0  0  0
 14 35  1  0  0  0  0
 14 36  1  0  0  0  0
 14 37  1  0  0  0  0
 15 38  1  0  0  0  0
 15 39  1  0  0  0  0
 15 40  1  0  0  0  0
 16 41  1  0  0  0  0
 16 42  1  0  0  0  0
 16 43  1  0  0  0  0
 17 21  2  0  0  0  0
 17 44  1  0  0  0  0
 18 19  2  0  0  0  0
 18 45  1  0  0  0  0
 19 46  1  0  0  0  0
 20 22  3  0  0  0  0
 21 22  1  0  0  0  0
 21 47  1  0  0  0  0
M  END
> <DATABASE_ID>
DB00857

> <DATABASE_NAME>
drugbank

> <ORIGINAL_SOURCE>
PUBCHEM

> <ORIGINAL_SOURCE_URL>
https://pubchem.ncbi.nlm.nih.gov/rest/pug/compound/inchikey/DOMXUEMWDBAQBQ-WEVVVXLNSA-N/SDF?record_type=3d

> <SMILES>
CN(C\C=C\C#CC(C)(C)C)CC1=CC=CC2=CC=CC=C12

> <INCHI_IDENTIFIER>
InChI=1S/C21H25N/c1-21(2,3)15-8-5-9-16-22(4)17-19-13-10-12-18-11-6-7-14-20(18)19/h5-7,9-14H,16-17H2,1-4H3/b9-5+

> <INCHI_KEY>
DOMXUEMWDBAQBQ-WEVVVXLNSA-N

> <FORMULA>
C21H25N

> <MOLECULAR_WEIGHT>
291.4299

> <EXACT_MASS>
291.198699805

> <JCHEM_ACCEPTOR_COUNT>
1

> <JCHEM_ATOM_COUNT>
47

> <JCHEM_AVERAGE_POLARIZABILITY>
35.837349567196924

> <JCHEM_BIOAVAILABILITY>
1

> <JCHEM_DONOR_COUNT>
0

> <JCHEM_FORMAL_CHARGE>
0

> <JCHEM_GHOSE_FILTER>
1

> <JCHEM_IUPAC>
[(2E)-6,6-dimethylhept-2-en-4-yn-1-yl](methyl)[(naphthalen-1-yl)methyl]amine

> <ALOGPS_LOGP>
5.51

> <JCHEM_LOGP>
5.527483033666666

> <ALOGPS_LOGS>
-5.60

> <JCHEM_MDDR_LIKE_RULE>
0

> <JCHEM_NUMBER_OF_RINGS>
2

> <JCHEM_PHYSIOLOGICAL_CHARGE>
1

> <JCHEM_PKA_STRONGEST_BASIC>
8.858516802624113

> <JCHEM_POLAR_SURFACE_AREA>
3.24

> <JCHEM_REFRACTIVITY>
98.07520000000001

> <JCHEM_ROTATABLE_BOND_COUNT>
6

> <JCHEM_RULE_OF_FIVE>
0

> <ALOGPS_SOLUBILITY>
7.38e-04 g/l

> <JCHEM_TRADITIONAL_IUPAC>
saquinavir

> <JCHEM_VEBER_RULE>
1

$$$$

  Mrv1652308021723372D          

 69 72  0  0  0  0            999 V2000
   -2.1439    4.2946    0.0000 C   0  0  0  0  0  0  0  0  0  0  0  0
   -2.1439    3.4697    0.0000 C   0  0  2  0  0  0  0  0  0  0  0  0
   -2.8583    4.7072    0.0000 C   0  0  0  0  0  0  0  0  0  0  0  0
   -2.8583    3.0571    0.0000 N   0  0  0  0  0  0  0  0  0  0  0  0
   -3.5729    4.2946    0.0000 C   0  0  0  0  0  0  0  0  0  0  0  0
   -3.5729    3.4697    0.0000 C   0  0  0  0  0  0  0  0  0  0  0  0
   -1.4291    3.0571    0.0000 C   0  0  0  0  0  0  0  0  0  0  0  0
   -1.4291    2.2321    0.0000 O   0  0  0  0  0  0  0  0  0  0  0  0
   -2.1439    1.8195    0.0000 O   0  0  0  0  0  0  0  0  0  0  0  0
   -2.8582    2.2321    0.0000 C   0  0  0  0  0  0  0  0  0  0  0  0
   -3.5728    1.8194    0.0000 C   0  0  0  0  0  0  0  0  0  0  0  0
   -4.2871    2.2319    0.0000 O   0  0  0  0  0  0  0  0  0  0  0  0
    0.0000    3.0571    0.0000 C   0  0  2  0  0  0  0  0  0  0  0  0
    0.0000    2.2321    0.0000 C   0  0  0  0  0  0  0  0  0  0  0  0
   -0.7148    3.4697    0.0000 O   0  0  0  0  0  0  0  0  0  0  0  0
    1.4288    3.0571    0.0000 C   0  0  0  0  0  0  0  0  0  0  0  0
    1.4288    2.2321    0.0000 O   0  0  0  0  0  0  0  0  0  0  0  0
    0.7144    3.4697    0.0000 C   0  0  1  0  0  0  0  0  0  0  0  0
    0.7144    1.8195    0.0000 C   0  0  0  0  0  0  0  0  0  0  0  0
    2.1435    4.2946    0.0000 C   0  0  0  0  0  0  0  0  0  0  0  0
    2.1435    3.4697    0.0000 C   0  0  2  0  0  0  0  0  0  0  0  0
    0.7145    4.2946    0.0000 C   0  0  0  0  0  0  0  0  0  0  0  0
    3.5727    4.2946    0.0000 C   0  0  1  0  0  0  0  0  0  0  0  0
    3.5727    3.4697    0.0000 C   0  0  1  0  0  0  0  0  0  0  0  0
    2.8580    4.7072    0.0000 C   0  0  0  0  0  0  0  0  0  0  0  0
    2.8580    3.0571    0.0000 C   0  0  0  0  0  0  0  0  0  0  0  0
   -2.8583    0.5820    0.0000 O   0  0  0  0  0  0  0  0  0  0  0  0
   -3.5728    0.9946    0.0000 C   0  0  2  0  0  0  0  0  0  0  0  0
   -2.8583   -0.2428    0.0000 C   0  0  1  0  0  0  0  0  0  0  0  0
   -3.5729   -0.6551    0.0000 C   0  0  0  0  0  0  0  0  0  0  0  0
   -4.2871    0.5821    0.0000 C   0  0  1  0  0  0  0  0  0  0  0  0
   -4.2873   -0.2426    0.0000 C   0  0  0  0  0  0  0  0  0  0  0  0
   -2.1439   -0.6553    0.0000 C   0  0  0  0  0  0  0  0  0  0  0  0
   -2.1439   -1.4805    0.0000 C   0  0  2  0  0  0  0  0  0  0  0  0
   -2.8583   -1.8930    0.0000 O   0  0  0  0  0  0  0  0  0  0  0  0
   -0.7148   -1.4805    0.0000 C   0  0  0  0  0  0  0  0  0  0  0  0
   -1.4294   -1.8930    0.0000 C   0  0  0  0  0  0  0  0  0  0  0  0
   -1.4294   -2.7180    0.0000 C   0  0  0  0  0  0  0  0  0  0  0  0
   -2.8583   -2.7178    0.0000 C   0  0  0  0  0  0  0  0  0  0  0  0
   -0.0011    3.9919    0.0000 H   0  0  0  0  0  0  0  0  0  0  0  0
   -5.0016    0.9948    0.0000 C   0  0  0  0  0  0  0  0  0  0  0  0
    0.7144    0.9944    0.0000 C   0  0  2  0  0  0  0  0  0  0  0  0
   -0.0002    0.5820    0.0000 C   0  0  0  0  0  0  0  0  0  0  0  0
    1.4288    0.5818    0.0000 C   0  0  0  0  0  0  0  0  0  0  0  0
    1.4288   -0.2431    0.0000 C   0  0  0  0  0  0  0  0  0  0  0  0
    0.7144   -0.6556    0.0000 C   0  0  0  0  0  0  0  0  0  0  0  0
    2.1434   -0.6556    0.0000 C   0  0  2  0  0  0  0  0  0  0  0  0
    2.1434   -1.4807    0.0000 C   0  0  1  0  0  0  0  0  0  0  0  0
    1.4287   -1.8931    0.0000 O   0  0  0  0  0  0  0  0  0  0  0  0
    2.8580   -0.2431    0.0000 O   0  0  0  0  0  0  0  0  0  0  0  0
    2.8579   -1.8931    0.0000 C   0  0  0  0  0  0  0  0  0  0  0  0
   -2.1934    0.2209    0.0000 H   0  0  0  0  0  0  0  0  0  0  0  0
   -0.7211   -3.1504    0.0000 C   0  0  0  0  0  0  0  0  0  0  0  0
   -0.7211   -4.1090    0.0000 C   0  0  0  0  0  0  0  0  0  0  0  0
    2.8579   -2.7182    0.0000 C   0  0  1  0  0  0  0  0  0  0  0  0
    2.1198   -3.1149    0.0000 C   0  0  0  0  0  0  0  0  0  0  0  0
    1.4288   -2.7180    0.0000 C   0  0  0  0  0  0  0  0  0  0  0  0
    3.5724   -1.4807    0.0000 O   0  0  0  0  0  0  0  0  0  0  0  0
   -0.0609   -4.4784    0.0000 C   0  0  0  0  0  0  0  0  0  0  0  0
    0.6540   -3.9833    0.0000 C   0  0  0  0  0  0  0  0  0  0  0  0
    1.5631   -3.9833    0.0000 C   0  0  1  0  0  0  0  0  0  0  0  0
    3.5772   -3.1032    0.0000 C   0  0  0  0  0  0  0  0  0  0  0  0
    2.1548    2.6720    0.0000 H   0  0  0  0  0  0  0  0  0  0  0  0
    4.2870    4.7072    0.0000 O   0  0  0  0  0  0  0  0  0  0  0  0
    4.2870    3.0571    0.0000 O   0  0  0  0  0  0  0  0  0  0  0  0
    5.0016    3.4696    0.0000 C   0  0  0  0  0  0  0  0  0  0  0  0
   -2.1433    2.6249    0.0000 H   0  0  0  0  0  0  0  0  0  0  0  0
   -2.9085    1.4050    0.0000 O   0  0  0  0  0  0  0  0  0  0  0  0
    1.9590   -4.7073    0.0000 C   0  0  0  0  0  0  0  0  0  0  0  0
  2  1  1  0  0  0  0
  3  1  1  0  0  0  0
  5  3  1  0  0  0  0
  6  5  1  0  0  0  0
  2  7  1  1  0  0  0
  4  2  1  0  0  0  0
  6  4  1  0  0  0  0
 10  4  1  0  0  0  0
 12 11  2  0  0  0  0
 15 13  1  0  0  0  0
  7 15  1  0  0  0  0
  8  7  2  0  0  0  0
 19 17  2  0  0  0  0
 13 18  1  0  0  0  0
 14 13  1  0  0  0  0
 16 21  1  0  0  0  0
 18 16  1  0  0  0  0
 18 22  1  6  0  0  0
 24 23  1  0  0  0  0
 25 23  1  0  0  0  0
 26 24  1  0  0  0  0
 20 25  1  0  0  0  0
 21 26  1  0  0  0  0
 21 20  1  0  0  0  0
 10  9  2  0  0  0  0
 11 10  1  0  0  0  0
 28 11  1  0  0  0  0
 29 27  1  6  0  0  0
 28 27  1  6  0  0  0
 31 28  1  0  0  0  0
 32 30  1  0  0  0  0
 32 31  1  0  0  0  0
 29 33  1  0  0  0  0
 30 29  1  0  0  0  0
 37 36  1  0  0  0  0
 34 33  1  0  0  0  0
 38 37  2  0  0  0  0
 34 37  1  0  0  0  0
 34 35  1  1  0  0  0
 39 35  1  0  0  0  0
 13 40  1  1  0  0  0
 31 41  1  1  0  0  0
 42 19  1  0  0  0  0
 14 19  1  0  0  0  0
 45 44  2  0  0  0  0
 42 44  1  0  0  0  0
 42 43  1  1  0  0  0
 48 47  1  0  0  0  0
 45 47  1  0  0  0  0
 46 45  1  0  0  0  0
 47 50  1  1  0  0  0
 48 51  1  0  0  0  0
 29 52  1  1  0  0  0
 53 38  1  0  0  0  0
 54 53  2  0  0  0  0
 55 51  1  0  0  0  0
 56 55  1  0  0  0  0
 48 49  1  6  0  0  0
 57 49  1  0  0  0  0
 58 51  2  0  0  0  0
 59 54  1  0  0  0  0
 60 59  2  0  0  0  0
 61 60  1  0  0  0  0
 56 61  1  0  0  0  0
 55 62  1  6  0  0  0
 21 63  1  1  0  0  0
 23 64  1  1  0  0  0
 24 65  1  6  0  0  0
 66 65  1  0  0  0  0
  2 67  1  6  0  0  0
 28 68  1  1  0  0  0
 61 69  1  6  0  0  0
M  END
> <DATABASE_ID>
DB00877

> <DATABASE_NAME>
drugbank

> <SMILES>
[H][C@@]1(C[C@@H](C)[C@]2([H])CC(=O)[C@H](C)\C=C(C)\[C@@H](O)[C@@H](OC)C(=O)[C@H](C)C[C@H](C)\C=C\C=C\C=C(C)\[C@H](C[C@]3([H])CC[C@@H](C)[C@@](O)(O3)C(=O)C(=O)N3CCCC[C@@]3([H])C(=O)O2)OC)CC[C@@H](O)[C@@H](C1)OC

> <INCHI_IDENTIFIER>
InChI=1S/C51H79NO13/c1-30-16-12-11-13-17-31(2)42(61-8)28-38-21-19-36(7)51(60,65-38)48(57)49(58)52-23-15-14-18-39(52)50(59)64-43(33(4)26-37-20-22-40(53)44(27-37)62-9)29-41(54)32(3)25-35(6)46(56)47(63-10)45(55)34(5)24-30/h11-13,16-17,25,30,32-34,36-40,42-44,46-47,53,56,60H,14-15,18-24,26-29H2,1-10H3/b13-11+,16-12+,31-17+,35-25+/t30-,32-,33-,34-,36-,37+,38+,39+,40-,42+,43+,44-,46-,47+,51-/m1/s1

> <INCHI_KEY>
QFJCIRLUMZQUOT-HPLJOQBZSA-N

> <FORMULA>
C51H79NO13

> <MOLECULAR_WEIGHT>
914.187

> <EXACT_MASS>
913.555141608

> <JCHEM_ACCEPTOR_COUNT>
12

> <JCHEM_ATOM_COUNT>
144

> <JCHEM_AVERAGE_POLARIZABILITY>
101.7426676674582

> <JCHEM_BIOAVAILABILITY>
0

> <JCHEM_DONOR_COUNT>
3

> <JCHEM_FORMAL_CHARGE>
0

> <JCHEM_GHOSE_FILTER>
0

> <JCHEM_IUPAC>
(1R,9S,12S,15R,16E,18R,19R,21R,23S,24E,26E,28E,30S,32S,35R)-1,18-dihydroxy-12-[(2R)-1-[(1S,3R,4R)-4-hydroxy-3-methoxycyclohexyl]propan-2-yl]-19,30-dimethoxy-15,17,21,23,29,35-hexamethyl-11,36-dioxa-4-azatricyclo[30.3.1.0^{4,9}]hexatriaconta-16,24,26,28-tetraene-2,3,10,14,20-pentone

> <ALOGPS_LOGP>
4.85

> <JCHEM_LOGP>
7.45083982266667

> <ALOGPS_LOGS>
-5.72

> <JCHEM_MDDR_LIKE_RULE>
1

> <JCHEM_NUMBER_OF_RINGS>
4

> <JCHEM_PHYSIOLOGICAL_CHARGE>
0

> <JCHEM_PKA>
13.368197872426823

> <JCHEM_PKA_STRONGEST_ACIDIC>
9.963727691413887

> <JCHEM_PKA_STRONGEST_BASIC>
-3.040520864948703

> <JCHEM_POLAR_SURFACE_AREA>
195.42999999999998

> <JCHEM_REFRACTIVITY>
250.6632000000001

> <JCHEM_ROTATABLE_BOND_COUNT>
6

> <JCHEM_RULE_OF_FIVE>
0

> <ALOGPS_SOLUBILITY>
1.73e-03 g/l

> <JCHEM_TRADITIONAL_IUPAC>
(1R,9S,12S,15R,16E,18R,19R,21R,23S,24E,26E,28E,30S,32S,35R)-1,18-dihydroxy-12-[(2R)-1-[(1S,3R,4R)-4-hydroxy-3-methoxycyclohexyl]propan-2-yl]-19,30-dimethoxy-15,17,21,23,29,35-hexamethyl-11,36-dioxa-4-azatricyclo[30.3.1.0^{4,9}]hexatriaconta-16,24,26,28-tetraene-2,3,10,14,20-pentone

> <JCHEM_VEBER_RULE>
0

> <DRUGBANK_ID>
DB00877

> <SECONDARY_ACCESSION_NUMBERS>
APRD00178; DB02439

> <DRUG_GROUPS>
approved; investigational

> <GENERIC_NAME>
Sirolimus

> <SYNONYMS>
(-)-Rapamycin; Rapamycin; Sirolimús; Sirolimus; Sirolimusum

> <PRODUCTS>
Gd-sirolimus; Rapamune; Sirolimus

$$$$
338
  -OEChem-04221913463D

 16 16  0     0  0  0  0  0  0999 V2000
    0.2626   -2.1794   -0.1866 O   0  0  0  0  0  0  0  0  0  0  0  0
    2.2319    1.3945   -0.4792 O   0  0  0  0  0  0  0  0  0  0  0  0
    2.4659   -0.6561    0.4730 O   0  0  0  0  0  0  0  0  0  0  0  0
    0.2790    0.2094    0.0344 C   0  0  0  0  0  0  0  0  0  0  0  0
   -0.4094   -0.9983   -0.0809 C   0  0  0  0  0  0  0  0  0  0  0  0
   -0.4275    1.4075    0.1399 C   0  0  0  0  0  0  0  0  0  0  0  0
   -1.8043   -1.0077   -0.0907 C   0  0  0  0  0  0  0  0  0  0  0  0
   -1.8223    1.3979    0.1300 C   0  0  0  0  0  0  0  0  0  0  0  0
   -2.5108    0.1904    0.0146 C   0  0  0  0  0  0  0  0  0  0  0  0
    1.7349    0.2418    0.0455 C   0  0  0  0  0  0  0  0  0  0  0  0
    0.0796    2.3632    0.2437 H   0  0  0  0  0  0  0  0  0  0  0  0
   -2.3539   -1.9410   -0.1801 H   0  0  0  0  0  0  0  0  0  0  0  0
   -2.3728    2.3304    0.2150 H   0  0  0  0  0  0  0  0  0  0  0  0
   -3.5968    0.1831    0.0077 H   0  0  0  0  0  0  0  0  0  0  0  0
   -0.3805   -2.9057   -0.2573 H   0  0  0  0  0  0  0  0  0  0  0  0
    3.2128    1.4077   -0.4679 H   0  0  0  0  0  0  0  0  0  0  0  0
  1  5  1  0  0  0  0
  1 15  1  0  0  0  0
  2 10  1  0  0  0  0
  2 16  1  0  0  0  0
  3 10  2  0  0  0  0
  4  5  1  0  0  0  0
  4  6  2  0  0  0  0
  4 10  1  0  0  0  0
  5  7  2  0  0  0  0
  6  8  1  0  0  0  0
  6 11  1  0  0  0  0
  7  9  1  0  0  0  0
  7 12  1  0  0  0  0
  8  9  2  0  0  0  0
  8 13  1  0  0  0  0
  9 14  1  0  0  0  0
M  END
> <DATABASE_ID>
DB00936

> <DATABASE_NAME>
drugbank

> <ORIGINAL_SOURCE>
PUBCHEM

> <ORIGINAL_SOURCE_URL>
https://pubchem.ncbi.nlm.nih.gov/rest/pug/compound/inchikey/YGSDEFSMJLZEOE-UHFFFAOYSA-N/SDF?record_type=3d

> <SMILES>
OC(=O)C1=CC=CC=C1O

> <INCHI_IDENTIFIER>
InChI=1S/C7H6O3/c8-6-4-2-1-3-5(6)7(9)10/h1-4,8H,(H,9,10)

> <INCHI_KEY>
YGSDEFSMJLZEOE-UHFFFAOYSA-N

> <FORMULA>
C7H6O3

> <MOLECULAR_WEIGHT>
138.122

> <EXACT_MASS>
138.031694053

> <JCHEM_ACCEPTOR_COUNT>
3

> <JCHEM_ATOM_COUNT>
16

> <JCHEM_AVERAGE_POLARIZABILITY>
12.814587378025518

> <JCHEM_BIOAVAILABILITY>
1

> <JCHEM_DONOR_COUNT>
2

> <JCHEM_FORMAL_CHARGE>
0

> <JCHEM_GHOSE_FILTER>
0

> <JCHEM_IUPAC>
2-hydroxybenzoic acid

> <ALOGPS_LOGP>
1.96

> <JCHEM_LOGP>
1.977263402333333

> <ALOGPS_LOGS>
-1.09

> <JCHEM_MDDR_LIKE_RULE>
0

> <JCHEM_NUMBER_OF_RINGS>
1

> <JCHEM_PHYSIOLOGICAL_CHARGE>
-1

> <JCHEM_PKA>
13.228682517040584

> <JCHEM_PKA_STRONGEST_ACIDIC>
2.7897391795725692

> <JCHEM_PKA_STRONGEST_BASIC>
-6.285929432184691

> <JCHEM_POLAR_SURFACE_AREA>
57.53

> <JCHEM_REFRACTIVITY>
35.2951

> <JCHEM_ROTATABLE_BOND_COUNT>
1

> <JCHEM_RULE_OF_FIVE>
1

> <ALOGPS_SOLUBILITY>
1.13e+01 g/l

> <JCHEM_TRADITIONAL_IUPAC>
phenol O-(β-D-glucuronide)

> <JCHEM_VEBER_RULE>
0

$$$$
5482
  -OEChem-10051719273D

 36 38  0     1  0  0  0  0  0999 V2000
   -1.7343   -1.4552   -2.6992 Cl  0  0  0  0  0  0  0  0  0  0  0  0
   -5.8775   -0.3380    0.5497 Cl  0  0  0  0  0  0  0  0  0  0  0  0
   -0.9307    3.3780    1.2951 Cl  0  0  0  0  0  0  0  0  0  0  0  0
    1.5762    4.7242    0.4698 S   0  0  0  0  0  0  0  0  0  0  0  0
    0.6907    0.1654    0.0616 O   0  0  0  0  0  0  0  0  0  0  0  0
    2.0651   -2.3552    0.5330 N   0  0  0  0  0  0  0  0  0  0  0  0
    3.9356   -3.1982   -0.2785 N   0  0  0  0  0  0  0  0  0  0  0  0
    0.0335   -1.0815   -0.2021 C   0  0  1  0  0  0  0  0  0  0  0  0
    0.6364   -2.1475    0.7355 C   0  0  0  0  0  0  0  0  0  0  0  0
   -1.4423   -0.9030   -0.0468 C   0  0  0  0  0  0  0  0  0  0  0  0
    0.2556    1.1701   -0.8371 C   0  0  0  0  0  0  0  0  0  0  0  0
   -2.3153   -1.0532   -1.1244 C   0  0  0  0  0  0  0  0  0  0  0  0
   -1.9408   -0.5783    1.2148 C   0  0  0  0  0  0  0  0  0  0  0  0
    3.0618   -1.6884    1.1687 C   0  0  0  0  0  0  0  0  0  0  0  0
    0.9696    2.4517   -0.5219 C   0  0  0  0  0  0  0  0  0  0  0  0
    2.6228   -3.2493   -0.3238 C   0  0  0  0  0  0  0  0  0  0  0  0
   -3.6869   -0.8785   -0.9402 C   0  0  0  0  0  0  0  0  0  0  0  0
   -3.3123   -0.4037    1.3990 C   0  0  0  0  0  0  0  0  0  0  0  0
   -4.1854   -0.5537    0.3215 C   0  0  0  0  0  0  0  0  0  0  0  0
    4.2158   -2.2275    0.6504 C   0  0  0  0  0  0  0  0  0  0  0  0
    2.2039    2.8046   -1.1179 C   0  0  0  0  0  0  0  0  0  0  0  0
    0.5069    3.3915    0.3577 C   0  0  0  0  0  0  0  0  0  0  0  0
    2.6518    4.0259   -0.6649 C   0  0  0  0  0  0  0  0  0  0  0  0
    0.3235   -1.3747   -1.2154 H   0  0  0  0  0  0  0  0  0  0  0  0
    0.5233   -1.8687    1.7902 H   0  0  0  0  0  0  0  0  0  0  0  0
    0.1436   -3.1171    0.5939 H   0  0  0  0  0  0  0  0  0  0  0  0
   -0.8216    1.3553   -0.7829 H   0  0  0  0  0  0  0  0  0  0  0  0
    0.4910    0.8702   -1.8665 H   0  0  0  0  0  0  0  0  0  0  0  0
   -1.2798   -0.4424    2.0662 H   0  0  0  0  0  0  0  0  0  0  0  0
    2.8837   -0.9175    1.9054 H   0  0  0  0  0  0  0  0  0  0  0  0
    2.0392   -3.9068   -0.9537 H   0  0  0  0  0  0  0  0  0  0  0  0
   -4.3694   -0.9951   -1.7796 H   0  0  0  0  0  0  0  0  0  0  0  0
   -3.6862   -0.1473    2.3869 H   0  0  0  0  0  0  0  0  0  0  0  0
    5.2340   -1.9653    0.8982 H   0  0  0  0  0  0  0  0  0  0  0  0
    2.7455    2.2058   -1.8391 H   0  0  0  0  0  0  0  0  0  0  0  0
    3.5594    4.5414   -0.9459 H   0  0  0  0  0  0  0  0  0  0  0  0
  1 12  1  0  0  0  0
  2 19  1  0  0  0  0
  3 22  1  0  0  0  0
  4 22  1  0  0  0  0
  4 23  1  0  0  0  0
  5  8  1  0  0  0  0
  5 11  1  0  0  0  0
  6  9  1  0  0  0  0
  6 14  1  0  0  0  0
  6 16  1  0  0  0  0
  7 16  2  0  0  0  0
  7 20  1  0  0  0  0
  8  9  1  0  0  0  0
  8 10  1  0  0  0  0
  8 24  1  0  0  0  0
  9 25  1  0  0  0  0
  9 26  1  0  0  0  0
 10 12  2  0  0  0  0
 10 13  1  0  0  0  0
 11 15  1  0  0  0  0
 11 27  1  0  0  0  0
 11 28  1  0  0  0  0
 12 17  1  0  0  0  0
 13 18  2  0  0  0  0
 13 29  1  0  0  0  0
 14 20  2  0  0  0  0
 14 30  1  0  0  0  0
 15 21  1  0  0  0  0
 15 22  2  0  0  0  0
 16 31  1  0  0  0  0
 17 19  2  0  0  0  0
 17 32  1  0  0  0  0
 18 19  1  0  0  0  0
 18 33  1  0  0  0  0
 20 34  1  0  0  0  0
 21 23  2  0  0  0  0
 21 35  1  0  0  0  0
 23 36  1  0  0  0  0
M  END
> <DATABASE_ID>
DB01007

> <DATABASE_NAME>
drugbank

> <ORIGINAL_SOURCE>
PUBCHEM

> <ORIGINAL_SOURCE_URL>
https://pubchem.ncbi.nlm.nih.gov/rest/pug/compound/inchikey/QXHHHPZILQDDPS-UHFFFAOYSA-N/SDF?record_type=3d

> <SMILES>
ClC1=C(COC(CN2C=CN=C2)C2=C(Cl)C=C(Cl)C=C2)C=CS1

> <INCHI_IDENTIFIER>
InChI=1S/C16H13Cl3N2OS/c17-12-1-2-13(14(18)7-12)15(8-21-5-4-20-10-21)22-9-11-3-6-23-16(11)19/h1-7,10,15H,8-9H2

> <INCHI_KEY>
QXHHHPZILQDDPS-UHFFFAOYSA-N

> <FORMULA>
C16H13Cl3N2OS

> <MOLECULAR_WEIGHT>
387.711

> <EXACT_MASS>
385.981416859

> <JCHEM_ACCEPTOR_COUNT>
2

> <JCHEM_AVERAGE_POLARIZABILITY>
36.83729826565817

> <JCHEM_BIOAVAILABILITY>
1

> <JCHEM_DONOR_COUNT>
0

> <JCHEM_FORMAL_CHARGE>
0

> <JCHEM_GHOSE_FILTER>
1

> <JCHEM_IUPAC>
1-{2-[(2-chlorothiophen-3-yl)methoxy]-2-(2,4-dichlorophenyl)ethyl}-1H-imidazole

> <ALOGPS_LOGP>
4.86

> <JCHEM_LOGP>
5.298761608666666

> <ALOGPS_LOGS>
-4.37

> <JCHEM_MDDR_LIKE_RULE>
1

> <JCHEM_NUMBER_OF_RINGS>
3

> <JCHEM_PHYSIOLOGICAL_CHARGE>
0

> <JCHEM_PKA_STRONGEST_BASIC>
6.767291901447468

> <JCHEM_POLAR_SURFACE_AREA>
27.05

> <JCHEM_REFRACTIVITY>
94.52850000000002

> <JCHEM_ROTATABLE_BOND_COUNT>
6

> <JCHEM_RULE_OF_FIVE>
0

> <ALOGPS_SOLUBILITY>
1.65e-02 g/l

> <JCHEM_TRADITIONAL_IUPAC>
tioconazole

> <JCHEM_VEBER_RULE>
1

$$$$
3823
  -OEChem-10051719283D

 64 68  0     1  0  0  0  0  0999 V2000
   -2.8686   -1.9996   -1.2348 Cl  0  0  0  0  0  0  0  0  0  0  0  0
   -7.8917   -3.9187   -1.0106 Cl  0  0  0  0  0  0  0  0  0  0  0  0
   -2.6900    0.1125    0.2761 O   0  0  0  0  0  0  0  0  0  0  0  0
   -4.4737    1.3697    1.1274 O   0  0  0  0  0  0  0  0  0  0  0  0
   -0.3858   -0.7938    1.7338 O   0  0  0  0  0  0  0  0  0  0  0  0
    9.5350    0.8158   -1.4263 O   0  0  0  0  0  0  0  0  0  0  0  0
    4.9292   -0.5179    0.1830 N   0  0  0  0  0  0  0  0  0  0  0  0
    7.7230   -0.3496   -0.5556 N   0  0  0  0  0  0  0  0  0  0  0  0
   -3.0274    2.6276   -1.0127 N   0  0  0  0  0  0  0  0  0  0  0  0
   -2.3046    4.6461   -0.4336 N   0  0  0  0  0  0  0  0  0  0  0  0
   -4.0207    0.5950   -0.0010 C   0  0  1  0  0  0  0  0  0  0  0  0
   -2.5130    0.3041    1.6812 C   0  0  2  0  0  0  0  0  0  0  0  0
   -3.3213    1.5464    1.9516 C   0  0  0  0  0  0  0  0  0  0  0  0
   -3.9417    1.5121   -1.2210 C   0  0  0  0  0  0  0  0  0  0  0  0
   -4.9722   -0.5619   -0.2680 C   0  0  0  0  0  0  0  0  0  0  0  0
   -1.0439    0.4396    2.0189 C   0  0  0  0  0  0  0  0  0  0  0  0
    5.6899   -1.7295   -0.1324 C   0  0  0  0  0  0  0  0  0  0  0  0
    5.5995    0.7774    0.0390 C   0  0  0  0  0  0  0  0  0  0  0  0
    7.1801   -1.5201    0.1374 C   0  0  0  0  0  0  0  0  0  0  0  0
    6.7608    0.6772   -0.9476 C   0  0  0  0  0  0  0  0  0  0  0  0
    3.5941   -0.5879    0.5735 C   0  0  0  0  0  0  0  0  0  0  0  0
   -4.5278   -1.7627   -0.8211 C   0  0  0  0  0  0  0  0  0  0  0  0
   -6.3192   -0.3994    0.0559 C   0  0  0  0  0  0  0  0  0  0  0  0
    0.9193   -0.7263    1.3533 C   0  0  0  0  0  0  0  0  0  0  0  0
    9.0766   -0.1692   -0.8428 C   0  0  0  0  0  0  0  0  0  0  0  0
    2.7838   -1.6223    0.1054 C   0  0  0  0  0  0  0  0  0  0  0  0
    3.0670    0.3772    1.4315 C   0  0  0  0  0  0  0  0  0  0  0  0
   -1.6911    2.6426   -1.2979 C   0  0  0  0  0  0  0  0  0  0  0  0
   -3.3501    3.8517   -0.4963 C   0  0  0  0  0  0  0  0  0  0  0  0
    1.4464   -1.6914    0.4953 C   0  0  0  0  0  0  0  0  0  0  0  0
    1.7295    0.3082    1.8214 C   0  0  0  0  0  0  0  0  0  0  0  0
   -5.4302   -2.8012   -1.0503 C   0  0  0  0  0  0  0  0  0  0  0  0
   -7.2216   -1.4380   -0.1733 C   0  0  0  0  0  0  0  0  0  0  0  0
   -6.7772   -2.6388   -0.7265 C   0  0  0  0  0  0  0  0  0  0  0  0
   -1.2673    3.8986   -0.9323 C   0  0  0  0  0  0  0  0  0  0  0  0
   10.0049   -1.2735   -0.4005 C   0  0  0  0  0  0  0  0  0  0  0  0
   -2.9474   -0.5714    2.1799 H   0  0  0  0  0  0  0  0  0  0  0  0
   -3.6253    1.6249    2.9994 H   0  0  0  0  0  0  0  0  0  0  0  0
   -2.7981    2.4656    1.6831 H   0  0  0  0  0  0  0  0  0  0  0  0
   -4.9187    1.9506   -1.4595 H   0  0  0  0  0  0  0  0  0  0  0  0
   -3.5838    0.9799   -2.1107 H   0  0  0  0  0  0  0  0  0  0  0  0
   -0.9190    0.6726    3.0822 H   0  0  0  0  0  0  0  0  0  0  0  0
   -0.6305    1.2538    1.4096 H   0  0  0  0  0  0  0  0  0  0  0  0
    5.3544   -2.5762    0.4789 H   0  0  0  0  0  0  0  0  0  0  0  0
    5.5349   -1.9893   -1.1868 H   0  0  0  0  0  0  0  0  0  0  0  0
    4.9028    1.5383   -0.3336 H   0  0  0  0  0  0  0  0  0  0  0  0
    5.9718    1.1037    1.0178 H   0  0  0  0  0  0  0  0  0  0  0  0
    7.3513   -1.3577    1.2086 H   0  0  0  0  0  0  0  0  0  0  0  0
    7.7323   -2.4185   -0.1534 H   0  0  0  0  0  0  0  0  0  0  0  0
    7.2612    1.6472   -1.0385 H   0  0  0  0  0  0  0  0  0  0  0  0
    6.3940    0.4041   -1.9447 H   0  0  0  0  0  0  0  0  0  0  0  0
   -6.6965    0.5290    0.4754 H   0  0  0  0  0  0  0  0  0  0  0  0
    3.1591   -2.3806   -0.5762 H   0  0  0  0  0  0  0  0  0  0  0  0
    3.6773    1.1835    1.8291 H   0  0  0  0  0  0  0  0  0  0  0  0
   -1.1743    1.7914   -1.7188 H   0  0  0  0  0  0  0  0  0  0  0  0
   -4.3543    4.1067   -0.1860 H   0  0  0  0  0  0  0  0  0  0  0  0
    0.8182   -2.4968    0.1245 H   0  0  0  0  0  0  0  0  0  0  0  0
    1.3673    1.0608    2.5154 H   0  0  0  0  0  0  0  0  0  0  0  0
   -5.0854   -3.7385   -1.4819 H   0  0  0  0  0  0  0  0  0  0  0  0
   -8.2690   -1.2965    0.0810 H   0  0  0  0  0  0  0  0  0  0  0  0
   -0.2676    4.3018   -1.0015 H   0  0  0  0  0  0  0  0  0  0  0  0
   11.0420   -0.9498   -0.5320 H   0  0  0  0  0  0  0  0  0  0  0  0
    9.8549   -1.5046    0.6573 H   0  0  0  0  0  0  0  0  0  0  0  0
    9.8407   -2.1650   -1.0111 H   0  0  0  0  0  0  0  0  0  0  0  0
  1 22  1  0  0  0  0
  2 34  1  0  0  0  0
  3 11  1  0  0  0  0
  3 12  1  0  0  0  0
  4 11  1  0  0  0  0
  4 13  1  0  0  0  0
  5 16  1  0  0  0  0
  5 24  1  0  0  0  0
  6 25  2  0  0  0  0
  7 17  1  0  0  0  0
  7 18  1  0  0  0  0
  7 21  1  0  0  0  0
  8 19  1  0  0  0  0
  8 20  1  0  0  0  0
  8 25  1  0  0  0  0
  9 14  1  0  0  0  0
  9 28  1  0  0  0  0
  9 29  1  0  0  0  0
 10 29  2  0  0  0  0
 10 35  1  0  0  0  0
 11 14  1  0  0  0  0
 11 15  1  0  0  0  0
 12 13  1  0  0  0  0
 12 16  1  0  0  0  0
 12 37  1  0  0  0  0
 13 38  1  0  0  0  0
 13 39  1  0  0  0  0
 14 40  1  0  0  0  0
 14 41  1  0  0  0  0
 15 22  2  0  0  0  0
 15 23  1  0  0  0  0
 16 42  1  0  0  0  0
 16 43  1  0  0  0  0
 17 19  1  0  0  0  0
 17 44  1  0  0  0  0
 17 45  1  0  0  0  0
 18 20  1  0  0  0  0
 18 46  1  0  0  0  0
 18 47  1  0  0  0  0
 19 48  1  0  0  0  0
 19 49  1  0  0  0  0
 20 50  1  0  0  0  0
 20 51  1  0  0  0  0
 21 26  2  0  0  0  0
 21 27  1  0  0  0  0
 22 32  1  0  0  0  0
 23 33  2  0  0  0  0
 23 52  1  0  0  0  0
 24 30  2  0  0  0  0
 24 31  1  0  0  0  0
 25 36  1  0  0  0  0
 26 30  1  0  0  0  0
 26 53  1  0  0  0  0
 27 31  2  0  0  0  0
 27 54  1  0  0  0  0
 28 35  2  0  0  0  0
 28 55  1  0  0  0  0
 29 56  1  0  0  0  0
 30 57  1  0  0  0  0
 31 58  1  0  0  0  0
 32 34  2  0  0  0  0
 32 59  1  0  0  0  0
 33 34  1  0  0  0  0
 33 60  1  0  0  0  0
 35 61  1  0  0  0  0
 36 62  1  0  0  0  0
 36 63  1  0  0  0  0
 36 64  1  0  0  0  0
M  END
> <DATABASE_ID>
DB01026

> <DATABASE_NAME>
drugbank

> <ORIGINAL_SOURCE>
PUBCHEM

> <ORIGINAL_SOURCE_URL>
https://pubchem.ncbi.nlm.nih.gov/rest/pug/compound/inchikey/XMAYWYJOQHXEEK-UHFFFAOYSA-N/SDF?record_type=3d

> <SMILES>
CC(=O)N1CCN(CC1)C1=CC=C(OCC2COC(CN3C=CN=C3)(O2)C2=CC=C(Cl)C=C2Cl)C=C1

> <INCHI_IDENTIFIER>
InChI=1S/C26H28Cl2N4O4/c1-19(33)31-10-12-32(13-11-31)21-3-5-22(6-4-21)34-15-23-16-35-26(36-23,17-30-9-8-29-18-30)24-7-2-20(27)14-25(24)28/h2-9,14,18,23H,10-13,15-17H2,1H3

> <INCHI_KEY>
XMAYWYJOQHXEEK-UHFFFAOYSA-N

> <FORMULA>
C26H28Cl2N4O4

> <MOLECULAR_WEIGHT>
531.431

> <EXACT_MASS>
530.148760818

> <JCHEM_ACCEPTOR_COUNT>
6

> <JCHEM_AVERAGE_POLARIZABILITY>
54.825017660667164

> <JCHEM_BIOAVAILABILITY>
1

> <JCHEM_DONOR_COUNT>
0

> <JCHEM_FORMAL_CHARGE>
0

> <JCHEM_GHOSE_FILTER>
0

> <JCHEM_IUPAC>
1-[4-(4-{[2-(2,4-dichlorophenyl)-2-(1H-imidazol-1-ylmethyl)-1,3-dioxolan-4-yl]methoxy}phenyl)piperazin-1-yl]ethan-1-one

> <ALOGPS_LOGP>
4.30

> <JCHEM_LOGP>
4.191597861333333

> <ALOGPS_LOGS>
-4.76

> <JCHEM_MDDR_LIKE_RULE>
1

> <JCHEM_NUMBER_OF_RINGS>
5

> <JCHEM_PHYSIOLOGICAL_CHARGE>
0

> <JCHEM_PKA_STRONGEST_BASIC>
6.746571393297444

> <JCHEM_POLAR_SURFACE_AREA>
69.06

> <JCHEM_REFRACTIVITY>
138.0672

> <JCHEM_ROTATABLE_BOND_COUNT>
7

> <JCHEM_RULE_OF_FIVE>
0

> <ALOGPS_SOLUBILITY>
9.31e-03 g/l

> <JCHEM_TRADITIONAL_IUPAC>
ketoconazole

> <JCHEM_VEBER_RULE>
0

$$$$
5282054
  -OEChem-04031914523D

 33 33  0     1  0  0  0  0  0999 V2000
    2.5528   -1.0418    1.1477 O   0  0  0  0  0  0  0  0  0  0  0  0
    1.3086    0.3278   -1.7249 O   0  0  0  0  0  0  0  0  0  0  0  0
   -0.1448   -1.2875    1.2467 O   0  0  0  0  0  0  0  0  0  0  0  0
   -0.2209   -2.3899   -0.7789 N   0  0  0  0  0  0  0  0  0  0  0  0
    2.7115   -0.8639   -0.2558 C   0  0  1  0  0  0  0  0  0  0  0  0
    1.8776   -1.9699    0.2891 C   0  0  2  0  0  0  0  0  0  0  0  0
    2.0431    0.3766   -0.7467 C   0  0  0  0  0  0  0  0  0  0  0  0
    2.3705    1.6391    0.0265 C   0  0  0  0  0  0  0  0  0  0  0  0
    0.4161   -1.8440    0.3100 C   0  0  0  0  0  0  0  0  0  0  0  0
    1.2647    2.6933   -0.0315 C   0  0  0  0  0  0  0  0  0  0  0  0
   -0.0172    2.2078    0.5846 C   0  0  0  0  0  0  0  0  0  0  0  0
   -1.1923    2.1814   -0.0615 C   0  0  0  0  0  0  0  0  0  0  0  0
   -2.4724    1.6990    0.5554 C   0  0  0  0  0  0  0  0  0  0  0  0
   -3.0909    0.5952   -0.2522 C   0  0  0  0  0  0  0  0  0  0  0  0
   -3.3933   -0.6128    0.2457 C   0  0  0  0  0  0  0  0  0  0  0  0
   -4.0130   -1.7102   -0.5543 C   0  0  0  0  0  0  0  0  0  0  0  0
    3.6657   -1.1125   -0.7017 H   0  0  0  0  0  0  0  0  0  0  0  0
    2.2787   -2.9757    0.2414 H   0  0  0  0  0  0  0  0  0  0  0  0
    2.5795    1.3978    1.0740 H   0  0  0  0  0  0  0  0  0  0  0  0
    3.2909    2.0517   -0.4024 H   0  0  0  0  0  0  0  0  0  0  0  0
    1.1029    2.9997   -1.0722 H   0  0  0  0  0  0  0  0  0  0  0  0
    1.5948    3.5851    0.5141 H   0  0  0  0  0  0  0  0  0  0  0  0
    0.0330    1.8686    1.6164 H   0  0  0  0  0  0  0  0  0  0  0  0
    0.2883   -2.8410   -1.5323 H   0  0  0  0  0  0  0  0  0  0  0  0
   -1.2292   -2.3538   -0.8697 H   0  0  0  0  0  0  0  0  0  0  0  0
   -1.2416    2.5390   -1.0876 H   0  0  0  0  0  0  0  0  0  0  0  0
   -3.1771    2.5384    0.5890 H   0  0  0  0  0  0  0  0  0  0  0  0
   -2.3119    1.3821    1.5931 H   0  0  0  0  0  0  0  0  0  0  0  0
   -3.3161    0.8108   -1.2943 H   0  0  0  0  0  0  0  0  0  0  0  0
   -3.1851   -0.8311    1.2897 H   0  0  0  0  0  0  0  0  0  0  0  0
   -4.1041   -1.4513   -1.6139 H   0  0  0  0  0  0  0  0  0  0  0  0
   -5.0128   -1.9315   -0.1680 H   0  0  0  0  0  0  0  0  0  0  0  0
   -3.4115   -2.6202   -0.4765 H   0  0  0  0  0  0  0  0  0  0  0  0
  1  5  1  0  0  0  0
  1  6  1  0  0  0  0
  2  7  2  0  0  0  0
  3  9  2  0  0  0  0
  4  9  1  0  0  0  0
  4 24  1  0  0  0  0
  4 25  1  0  0  0  0
  5  6  1  0  0  0  0
  5  7  1  0  0  0  0
  5 17  1  0  0  0  0
  6  9  1  0  0  0  0
  6 18  1  0  0  0  0
  7  8  1  0  0  0  0
  8 10  1  0  0  0  0
  8 19  1  0  0  0  0
  8 20  1  0  0  0  0
 10 11  1  0  0  0  0
 10 21  1  0  0  0  0
 10 22  1  0  0  0  0
 11 12  2  0  0  0  0
 11 23  1  0  0  0  0
 12 13  1  0  0  0  0
 12 26  1  0  0  0  0
 13 14  1  0  0  0  0
 13 27  1  0  0  0  0
 13 28  1  0  0  0  0
 14 15  2  0  0  0  0
 14 29  1  0  0  0  0
 15 16  1  0  0  0  0
 15 30  1  0  0  0  0
 16 31  1  0  0  0  0
 16 32  1  0  0  0  0
 16 33  1  0  0  0  0
M  END
> <DATABASE_ID>
DB01034

> <DATABASE_NAME>
drugbank

> <ORIGINAL_SOURCE>
PUBCHEM

> <ORIGINAL_SOURCE_URL>
https://pubchem.ncbi.nlm.nih.gov/rest/pug/compound/inchikey/GVEZIHKRYBHEFX-NQQPLRFYSA-N/SDF?record_type=3d

> <SMILES>
[H][C@]1(O[C@]1([H])C(=O)CC\C=C\C\C=C\C)C(N)=O

> <INCHI_IDENTIFIER>
InChI=1S/C12H17NO3/c1-2-3-4-5-6-7-8-9(14)10-11(16-10)12(13)15/h2-3,5-6,10-11H,4,7-8H2,1H3,(H2,13,15)/b3-2+,6-5+/t10-,11-/m1/s1

> <INCHI_KEY>
GVEZIHKRYBHEFX-NQQPLRFYSA-N

> <FORMULA>
C12H17NO3

> <MOLECULAR_WEIGHT>
223.272

> <EXACT_MASS>
223.120843411

> <JCHEM_ACCEPTOR_COUNT>
4

> <JCHEM_ATOM_COUNT>
33

> <JCHEM_AVERAGE_POLARIZABILITY>
23.621241708802646

> <JCHEM_BIOAVAILABILITY>
1

> <JCHEM_DONOR_COUNT>
2

> <JCHEM_FORMAL_CHARGE>
0

> <JCHEM_GHOSE_FILTER>
1

> <JCHEM_IUPAC>
(2R,3S)-3-[(4E,7E)-nona-4,7-dienoyl]oxirane-2-carboximidic acid

> <ALOGPS_LOGP>
1.38

> <JCHEM_LOGP>
-0.325631054862003

> <ALOGPS_LOGS>
-2.14

> <JCHEM_MDDR_LIKE_RULE>
0

> <JCHEM_NUMBER_OF_RINGS>
1

> <JCHEM_PHYSIOLOGICAL_CHARGE>
0

> <JCHEM_PKA>
19.91164991318967

> <JCHEM_PKA_STRONGEST_ACIDIC>
-3.3832226265519734

> <JCHEM_PKA_STRONGEST_BASIC>
12.562454821622046

> <JCHEM_POLAR_SURFACE_AREA>
73.68

> <JCHEM_REFRACTIVITY>
73.47930000000001

> <JCHEM_ROTATABLE_BOND_COUNT>
7

> <JCHEM_RULE_OF_FIVE>
1

> <ALOGPS_SOLUBILITY>
1.60e+00 g/l

> <JCHEM_TRADITIONAL_IUPAC>
cerulenin

> <JCHEM_VEBER_RULE>
0

$$$$
2484
  -OEChem-10051719293D

 51 53  0     1  0  0  0  0  0999 V2000
   -0.4864    0.9275   -0.6259 N   0  0  2  0  0  0  0  0  0  0  0  0
    5.6086   -0.6959    0.6535 C   0  0  0  0  0  0  0  0  0  0  0  0
    4.3181   -0.2201    0.0777 C   0  0  0  0  0  0  0  0  0  0  0  0
    6.0535   -2.0447    0.0076 C   0  0  0  0  0  0  0  0  0  0  0  0
    5.4909   -0.9276    2.1921 C   0  0  0  0  0  0  0  0  0  0  0  0
    6.8236    0.2734    0.4709 C   0  0  0  0  0  0  0  0  0  0  0  0
    0.6129    1.1454   -1.5754 C   0  0  0  0  0  0  0  0  0  0  0  0
    1.9141    0.6659   -0.9943 C   0  0  0  0  0  0  0  0  0  0  0  0
    3.1728   -1.0088    0.1871 C   0  0  0  0  0  0  0  0  0  0  0  0
    4.2560    1.0135   -0.5702 C   0  0  0  0  0  0  0  0  0  0  0  0
   -1.7545    1.3133   -1.2005 C   0  0  0  0  0  0  0  0  0  0  0  0
    1.9653   -0.5638   -0.3513 C   0  0  0  0  0  0  0  0  0  0  0  0
    3.0487    1.4586   -1.1086 C   0  0  0  0  0  0  0  0  0  0  0  0
   -2.8758    1.0315   -0.2487 C   0  0  0  0  0  0  0  0  0  0  0  0
   -3.5543   -0.1982   -0.2405 C   0  0  0  0  0  0  0  0  0  0  0  0
   -0.2225    1.6650    0.6166 C   0  0  0  0  0  0  0  0  0  0  0  0
   -4.6058   -0.4022    0.6845 C   0  0  0  0  0  0  0  0  0  0  0  0
   -3.2292    2.0456    0.6421 C   0  0  0  0  0  0  0  0  0  0  0  0
   -3.2122   -1.2299   -1.1299 C   0  0  0  0  0  0  0  0  0  0  0  0
   -4.9478    0.6293    1.5741 C   0  0  0  0  0  0  0  0  0  0  0  0
   -4.2630    1.8448    1.5520 C   0  0  0  0  0  0  0  0  0  0  0  0
   -5.2843   -1.6318    0.6929 C   0  0  0  0  0  0  0  0  0  0  0  0
   -3.8972   -2.4451   -1.1077 C   0  0  0  0  0  0  0  0  0  0  0  0
   -4.9314   -2.6456   -0.1981 C   0  0  0  0  0  0  0  0  0  0  0  0
    7.0164   -2.3809    0.4095 H   0  0  0  0  0  0  0  0  0  0  0  0
    5.3291   -2.8455    0.1925 H   0  0  0  0  0  0  0  0  0  0  0  0
    6.1603   -1.9396   -1.0785 H   0  0  0  0  0  0  0  0  0  0  0  0
    4.7517   -1.6990    2.4343 H   0  0  0  0  0  0  0  0  0  0  0  0
    6.4467   -1.2500    2.6212 H   0  0  0  0  0  0  0  0  0  0  0  0
    5.1865   -0.0061    2.7022 H   0  0  0  0  0  0  0  0  0  0  0  0
    7.0412    0.4495   -0.5891 H   0  0  0  0  0  0  0  0  0  0  0  0
    6.6428    1.2399    0.9557 H   0  0  0  0  0  0  0  0  0  0  0  0
    7.7331   -0.1446    0.9193 H   0  0  0  0  0  0  0  0  0  0  0  0
    0.6776    2.2065   -1.8514 H   0  0  0  0  0  0  0  0  0  0  0  0
    0.4336    0.5792   -2.4984 H   0  0  0  0  0  0  0  0  0  0  0  0
   -1.9276    0.8291   -2.1679 H   0  0  0  0  0  0  0  0  0  0  0  0
   -1.7583    2.3854   -1.4502 H   0  0  0  0  0  0  0  0  0  0  0  0
    3.1935   -1.9747    0.6834 H   0  0  0  0  0  0  0  0  0  0  0  0
    5.1147    1.6659   -0.6839 H   0  0  0  0  0  0  0  0  0  0  0  0
    1.0900   -1.2020   -0.2684 H   0  0  0  0  0  0  0  0  0  0  0  0
    3.0129    2.4207   -1.6119 H   0  0  0  0  0  0  0  0  0  0  0  0
   -0.3014    2.7503    0.4795 H   0  0  0  0  0  0  0  0  0  0  0  0
    0.7694    1.4741    1.0385 H   0  0  0  0  0  0  0  0  0  0  0  0
   -0.8898    1.3483    1.4242 H   0  0  0  0  0  0  0  0  0  0  0  0
   -2.7260    3.0088    0.6319 H   0  0  0  0  0  0  0  0  0  0  0  0
   -2.4048   -1.1428   -1.8501 H   0  0  0  0  0  0  0  0  0  0  0  0
   -5.7534    0.4948    2.2931 H   0  0  0  0  0  0  0  0  0  0  0  0
   -4.5407    2.6359    2.2424 H   0  0  0  0  0  0  0  0  0  0  0  0
   -6.0955   -1.8108    1.3955 H   0  0  0  0  0  0  0  0  0  0  0  0
   -3.6206   -3.2369   -1.7979 H   0  0  0  0  0  0  0  0  0  0  0  0
   -5.4635   -3.5924   -0.1807 H   0  0  0  0  0  0  0  0  0  0  0  0
  1  7  1  0  0  0  0
  1 11  1  0  0  0  0
  1 16  1  0  0  0  0
  2  3  1  0  0  0  0
  2  4  1  0  0  0  0
  2  5  1  0  0  0  0
  2  6  1  0  0  0  0
  3  9  2  0  0  0  0
  3 10  1  0  0  0  0
  4 25  1  0  0  0  0
  4 26  1  0  0  0  0
  4 27  1  0  0  0  0
  5 28  1  0  0  0  0
  5 29  1  0  0  0  0
  5 30  1  0  0  0  0
  6 31  1  0  0  0  0
  6 32  1  0  0  0  0
  6 33  1  0  0  0  0
  7  8  1  0  0  0  0
  7 34  1  0  0  0  0
  7 35  1  0  0  0  0
  8 12  2  0  0  0  0
  8 13  1  0  0  0  0
  9 12  1  0  0  0  0
  9 38  1  0  0  0  0
 10 13  2  0  0  0  0
 10 39  1  0  0  0  0
 11 14  1  0  0  0  0
 11 36  1  0  0  0  0
 11 37  1  0  0  0  0
 12 40  1  0  0  0  0
 13 41  1  0  0  0  0
 14 15  1  0  0  0  0
 14 18  2  0  0  0  0
 15 17  1  0  0  0  0
 15 19  2  0  0  0  0
 16 42  1  0  0  0  0
 16 43  1  0  0  0  0
 16 44  1  0  0  0  0
 17 20  1  0  0  0  0
 17 22  2  0  0  0  0
 18 21  1  0  0  0  0
 18 45  1  0  0  0  0
 19 23  1  0  0  0  0
 19 46  1  0  0  0  0
 20 21  2  0  0  0  0
 20 47  1  0  0  0  0
 21 48  1  0  0  0  0
 22 24  1  0  0  0  0
 22 49  1  0  0  0  0
 23 24  2  0  0  0  0
 23 50  1  0  0  0  0
 24 51  1  0  0  0  0
M  END
> <DATABASE_ID>
DB01091

> <DATABASE_NAME>
drugbank

> <ORIGINAL_SOURCE>
PUBCHEM

> <ORIGINAL_SOURCE_URL>
https://pubchem.ncbi.nlm.nih.gov/rest/pug/compound/inchikey/ABJKWBDEJIDSJZ-UHFFFAOYSA-N/SDF?record_type=3d

> <SMILES>
CN(CC1=CC=C(C=C1)C(C)(C)C)CC1=CC=CC2=CC=CC=C12

> <INCHI_IDENTIFIER>
InChI=1S/C23H27N/c1-23(2,3)21-14-12-18(13-15-21)16-24(4)17-20-10-7-9-19-8-5-6-11-22(19)20/h5-15H,16-17H2,1-4H3

> <INCHI_KEY>
ABJKWBDEJIDSJZ-UHFFFAOYSA-N

> <FORMULA>
C23H27N

> <MOLECULAR_WEIGHT>
317.4672

> <EXACT_MASS>
317.214349869

> <JCHEM_ACCEPTOR_COUNT>
1

> <JCHEM_AVERAGE_POLARIZABILITY>
38.40901664817692

> <JCHEM_BIOAVAILABILITY>
1

> <JCHEM_DONOR_COUNT>
0

> <JCHEM_FORMAL_CHARGE>
0

> <JCHEM_GHOSE_FILTER>
0

> <JCHEM_IUPAC>
[(4-tert-butylphenyl)methyl](methyl)(naphthalen-1-ylmethyl)amine

> <ALOGPS_LOGP>
5.85

> <JCHEM_LOGP>
6.173648727666666

> <ALOGPS_LOGS>
-6.62

> <JCHEM_MDDR_LIKE_RULE>
0

> <JCHEM_NUMBER_OF_RINGS>
3

> <JCHEM_PHYSIOLOGICAL_CHARGE>
1

> <JCHEM_PKA_STRONGEST_BASIC>
9.233430737971924

> <JCHEM_POLAR_SURFACE_AREA>
3.24

> <JCHEM_REFRACTIVITY>
104.32940000000002

> <JCHEM_ROTATABLE_BOND_COUNT>
5

> <JCHEM_RULE_OF_FIVE>
0

> <ALOGPS_SOLUBILITY>
7.56e-05 g/l

> <JCHEM_TRADITIONAL_IUPAC>
butenafine

> <JCHEM_VEBER_RULE>
1

$$$$
3366
  -OEChem-11061913043D

 13 13  0     0  0  0  0  0  0999 V2000
    2.3815    0.9951   -0.0002 F   0  0  0  0  0  0  0  0  0  0  0  0
   -2.7475   -0.4935   -0.0006 O   0  0  0  0  0  0  0  0  0  0  0  0
   -0.5463   -1.0798    0.0006 N   0  0  0  0  0  0  0  0  0  0  0  0
    1.7425   -1.7626   -0.0005 N   0  0  0  0  0  0  0  0  0  0  0  0
   -1.2205    1.2102   -0.0002 N   0  0  0  0  0  0  0  0  0  0  0  0
    0.8002   -0.7730    0.0002 C   0  0  0  0  0  0  0  0  0  0  0  0
    1.1228    0.5254    0.0002 C   0  0  0  0  0  0  0  0  0  0  0  0
   -1.5700   -0.1306    0.0004 C   0  0  0  0  0  0  0  0  0  0  0  0
    0.0374    1.5088    0.0000 C   0  0  0  0  0  0  0  0  0  0  0  0
   -0.7956   -2.0645    0.0004 H   0  0  0  0  0  0  0  0  0  0  0  0
    0.3457    2.5660   -0.0005 H   0  0  0  0  0  0  0  0  0  0  0  0
    2.7274   -1.5286   -0.0005 H   0  0  0  0  0  0  0  0  0  0  0  0
    1.4439   -2.7295   -0.0001 H   0  0  0  0  0  0  0  0  0  0  0  0
  1  7  1  0  0  0  0
  2  8  2  0  0  0  0
  3  6  1  0  0  0  0
  3  8  1  0  0  0  0
  3 10  1  0  0  0  0
  4  6  1  0  0  0  0
  4 12  1  0  0  0  0
  4 13  1  0  0  0  0
  5  8  1  0  0  0  0
  5  9  2  0  0  0  0
  6  7  2  0  0  0  0
  7  9  1  0  0  0  0
  9 11  1  0  0  0  0
M  END
> <DATABASE_ID>
DB01099

> <DATABASE_NAME>
drugbank

> <ORIGINAL_SOURCE>
PUBCHEM

> <ORIGINAL_SOURCE_URL>
https://pubchem.ncbi.nlm.nih.gov/rest/pug/compound/inchikey/XRECTZIEBJDKEO-UHFFFAOYSA-N/SDF?record_type=3d

> <SMILES>
NC1=NC(=O)NC=C1F

> <INCHI_IDENTIFIER>
InChI=1S/C4H4FN3O/c5-2-1-7-4(9)8-3(2)6/h1H,(H3,6,7,8,9)

> <INCHI_KEY>
XRECTZIEBJDKEO-UHFFFAOYSA-N

> <FORMULA>
C4H4FN3O

> <MOLECULAR_WEIGHT>
129.0925

> <EXACT_MASS>
129.03383997

> <JCHEM_ACCEPTOR_COUNT>
3

> <JCHEM_ATOM_COUNT>
13

> <JCHEM_AVERAGE_POLARIZABILITY>
10.03910804099278

> <JCHEM_BIOAVAILABILITY>
1

> <JCHEM_DONOR_COUNT>
2

> <JCHEM_FORMAL_CHARGE>
0

> <JCHEM_GHOSE_FILTER>
0

> <JCHEM_IUPAC>
4-amino-5-fluoro-1,2-dihydropyrimidin-2-one

> <ALOGPS_LOGP>
-0.69

> <JCHEM_LOGP>
-1.0381232326666665

> <ALOGPS_LOGS>
-1.78

> <JCHEM_MDDR_LIKE_RULE>
0

> <JCHEM_NUMBER_OF_RINGS>
1

> <JCHEM_PHYSIOLOGICAL_CHARGE>
0

> <JCHEM_PKA>
19.332576580038925

> <JCHEM_PKA_STRONGEST_ACIDIC>
8.308349974367351

> <JCHEM_PKA_STRONGEST_BASIC>
1.7836182968140246

> <JCHEM_POLAR_SURFACE_AREA>
67.48

> <JCHEM_REFRACTIVITY>
28.1514

> <JCHEM_ROTATABLE_BOND_COUNT>
0

> <JCHEM_RULE_OF_FIVE>
1

> <ALOGPS_SOLUBILITY>
2.14e+00 g/l

> <JCHEM_TRADITIONAL_IUPAC>
(2R,3R,5S)-5-(4-amino-5-fluoro-2-oxopyrimidin-1-yl)-2-(hydroxymethyl)-1,3-oxathiolan-3-ium-3-olate

> <JCHEM_VEBER_RULE>
0

$$$$
4189
  -OEChem-10051719293D

 39 41  0     1  0  0  0  0  0999 V2000
   -2.6934    0.0757   -2.6928 Cl  0  0  0  0  0  0  0  0  0  0  0  0
   -4.7330    3.8524    0.5550 Cl  0  0  0  0  0  0  0  0  0  0  0  0
    1.0397    2.7721    1.1594 Cl  0  0  0  0  0  0  0  0  0  0  0  0
    6.2875    1.9490    0.2919 Cl  0  0  0  0  0  0  0  0  0  0  0  0
    0.1607   -0.5234    0.0470 O   0  0  0  0  0  0  0  0  0  0  0  0
   -0.7125   -3.2719    0.5493 N   0  0  0  0  0  0  0  0  0  0  0  0
   -0.0591   -5.2241   -0.2443 N   0  0  0  0  0  0  0  0  0  0  0  0
   -1.1786   -0.9279   -0.2031 C   0  0  1  0  0  0  0  0  0  0  0  0
   -1.5337   -2.0832    0.7439 C   0  0  0  0  0  0  0  0  0  0  0  0
   -2.0817    0.2743   -0.0443 C   0  0  0  0  0  0  0  0  0  0  0  0
    0.5777    0.4890   -0.8592 C   0  0  0  0  0  0  0  0  0  0  0  0
   -2.7934    0.7806   -1.1204 C   0  0  0  0  0  0  0  0  0  0  0  0
   -2.1726    0.8509    1.2136 C   0  0  0  0  0  0  0  0  0  0  0  0
    1.9885    0.8755   -0.5519 C   0  0  0  0  0  0  0  0  0  0  0  0
    0.4597   -3.5386    1.1794 C   0  0  0  0  0  0  0  0  0  0  0  0
   -0.9922   -4.2995   -0.2935 C   0  0  0  0  0  0  0  0  0  0  0  0
   -3.6166    1.8914   -0.9347 C   0  0  0  0  0  0  0  0  0  0  0  0
   -2.9957    1.9616    1.3991 C   0  0  0  0  0  0  0  0  0  0  0  0
   -3.7177    2.4818    0.3250 C   0  0  0  0  0  0  0  0  0  0  0  0
    0.8487   -4.7561    0.6725 C   0  0  0  0  0  0  0  0  0  0  0  0
    2.2878    1.8976    0.3491 C   0  0  0  0  0  0  0  0  0  0  0  0
    3.0183    0.1856   -1.1914 C   0  0  0  0  0  0  0  0  0  0  0  0
    3.6172    2.2297    0.6101 C   0  0  0  0  0  0  0  0  0  0  0  0
    4.3475    0.5178   -0.9304 C   0  0  0  0  0  0  0  0  0  0  0  0
    4.6470    1.5398   -0.0295 C   0  0  0  0  0  0  0  0  0  0  0  0
   -1.2004   -1.3444   -1.2143 H   0  0  0  0  0  0  0  0  0  0  0  0
   -1.4001   -1.8021    1.7956 H   0  0  0  0  0  0  0  0  0  0  0  0
   -2.5793   -2.3889    0.6146 H   0  0  0  0  0  0  0  0  0  0  0  0
   -0.0547    1.3805   -0.8478 H   0  0  0  0  0  0  0  0  0  0  0  0
    0.5261    0.0965   -1.8839 H   0  0  0  0  0  0  0  0  0  0  0  0
   -1.6088    0.4712    2.0605 H   0  0  0  0  0  0  0  0  0  0  0  0
    0.9074   -2.8736    1.9048 H   0  0  0  0  0  0  0  0  0  0  0  0
   -1.8757   -4.3286   -0.9166 H   0  0  0  0  0  0  0  0  0  0  0  0
   -4.1804    2.2986   -1.7714 H   0  0  0  0  0  0  0  0  0  0  0  0
   -3.0619    2.4136    2.3854 H   0  0  0  0  0  0  0  0  0  0  0  0
    1.7369   -5.3188    0.9202 H   0  0  0  0  0  0  0  0  0  0  0  0
    2.8012   -0.6155   -1.8933 H   0  0  0  0  0  0  0  0  0  0  0  0
    3.8527    3.0265    1.3125 H   0  0  0  0  0  0  0  0  0  0  0  0
    5.1397   -0.0289   -1.4355 H   0  0  0  0  0  0  0  0  0  0  0  0
  1 12  1  0  0  0  0
  2 19  1  0  0  0  0
  3 21  1  0  0  0  0
  4 25  1  0  0  0  0
  5  8  1  0  0  0  0
  5 11  1  0  0  0  0
  6  9  1  0  0  0  0
  6 15  1  0  0  0  0
  6 16  1  0  0  0  0
  7 16  2  0  0  0  0
  7 20  1  0  0  0  0
  8  9  1  0  0  0  0
  8 10  1  0  0  0  0
  8 26  1  0  0  0  0
  9 27  1  0  0  0  0
  9 28  1  0  0  0  0
 10 12  2  0  0  0  0
 10 13  1  0  0  0  0
 11 14  1  0  0  0  0
 11 29  1  0  0  0  0
 11 30  1  0  0  0  0
 12 17  1  0  0  0  0
 13 18  2  0  0  0  0
 13 31  1  0  0  0  0
 14 21  2  0  0  0  0
 14 22  1  0  0  0  0
 15 20  2  0  0  0  0
 15 32  1  0  0  0  0
 16 33  1  0  0  0  0
 17 19  2  0  0  0  0
 17 34  1  0  0  0  0
 18 19  1  0  0  0  0
 18 35  1  0  0  0  0
 20 36  1  0  0  0  0
 21 23  1  0  0  0  0
 22 24  2  0  0  0  0
 22 37  1  0  0  0  0
 23 25  2  0  0  0  0
 23 38  1  0  0  0  0
 24 25  1  0  0  0  0
 24 39  1  0  0  0  0
M  END
> <DATABASE_ID>
DB01110

> <DATABASE_NAME>
drugbank

> <ORIGINAL_SOURCE>
PUBCHEM

> <ORIGINAL_SOURCE_URL>
https://pubchem.ncbi.nlm.nih.gov/rest/pug/compound/inchikey/BYBLEWFAAKGYCD-UHFFFAOYSA-N/SDF?record_type=3d

> <SMILES>
ClC1=CC(Cl)=C(COC(CN2C=CN=C2)C2=C(Cl)C=C(Cl)C=C2)C=C1

> <INCHI_IDENTIFIER>
InChI=1S/C18H14Cl4N2O/c19-13-2-1-12(16(21)7-13)10-25-18(9-24-6-5-23-11-24)15-4-3-14(20)8-17(15)22/h1-8,11,18H,9-10H2

> <INCHI_KEY>
BYBLEWFAAKGYCD-UHFFFAOYSA-N

> <FORMULA>
C18H14Cl4N2O

> <MOLECULAR_WEIGHT>
416.129

> <EXACT_MASS>
413.986023908

> <JCHEM_ACCEPTOR_COUNT>
2

> <JCHEM_AVERAGE_POLARIZABILITY>
39.54459918917317

> <JCHEM_BIOAVAILABILITY>
1

> <JCHEM_DONOR_COUNT>
0

> <JCHEM_FORMAL_CHARGE>
0

> <JCHEM_GHOSE_FILTER>
0

> <JCHEM_IUPAC>
1-[2-(2,4-dichlorophenyl)-2-[(2,4-dichlorophenyl)methoxy]ethyl]-1H-imidazole

> <ALOGPS_LOGP>
5.86

> <JCHEM_LOGP>
5.956368360333332

> <ALOGPS_LOGS>
-5.74

> <JCHEM_MDDR_LIKE_RULE>
1

> <JCHEM_NUMBER_OF_RINGS>
3

> <JCHEM_PHYSIOLOGICAL_CHARGE>
0

> <JCHEM_PKA_STRONGEST_BASIC>
6.767291901565906

> <JCHEM_POLAR_SURFACE_AREA>
27.05

> <JCHEM_REFRACTIVITY>
103.06760000000001

> <JCHEM_ROTATABLE_BOND_COUNT>
6

> <JCHEM_RULE_OF_FIVE>
0

> <ALOGPS_SOLUBILITY>
7.63e-04 g/l

> <JCHEM_TRADITIONAL_IUPAC>
miconazole

> <JCHEM_VEBER_RULE>
1

$$$$
3198
  -OEChem-10051719303D

 39 41  0     1  0  0  0  0  0999 V2000
    2.6426   -0.1559   -2.6541 Cl  0  0  0  0  0  0  0  0  0  0  0  0
    4.8149   -3.7797    0.6805 Cl  0  0  0  0  0  0  0  0  0  0  0  0
   -6.2144   -2.3560    0.4727 Cl  0  0  0  0  0  0  0  0  0  0  0  0
   -0.2235    0.4157    0.0783 O   0  0  0  0  0  0  0  0  0  0  0  0
    0.5577    3.2036    0.5094 N   0  0  0  0  0  0  0  0  0  0  0  0
   -0.1627    5.1123   -0.3307 N   0  0  0  0  0  0  0  0  0  0  0  0
    1.1005    0.8583   -0.1856 C   0  0  1  0  0  0  0  0  0  0  0  0
    1.4187    2.0481    0.7311 C   0  0  0  0  0  0  0  0  0  0  0  0
    2.0438   -0.3085    0.0002 C   0  0  0  0  0  0  0  0  0  0  0  0
   -0.6078   -0.6331   -0.8021 C   0  0  0  0  0  0  0  0  0  0  0  0
    2.7697   -0.8175   -1.0650 C   0  0  0  0  0  0  0  0  0  0  0  0
    2.1567   -0.8502    1.2718 C   0  0  0  0  0  0  0  0  0  0  0  0
   -2.0011   -1.0607   -0.4846 C   0  0  0  0  0  0  0  0  0  0  0  0
   -0.6214    3.4465    1.1363 C   0  0  0  0  0  0  0  0  0  0  0  0
    0.8009    4.2185   -0.3596 C   0  0  0  0  0  0  0  0  0  0  0  0
    3.6301   -1.8951   -0.8543 C   0  0  0  0  0  0  0  0  0  0  0  0
    3.0170   -1.9276    1.4825 C   0  0  0  0  0  0  0  0  0  0  0  0
    3.7536   -2.4501    0.4195 C   0  0  0  0  0  0  0  0  0  0  0  0
   -1.0522    4.6373    0.6002 C   0  0  0  0  0  0  0  0  0  0  0  0
   -2.2243   -2.0753    0.4460 C   0  0  0  0  0  0  0  0  0  0  0  0
   -3.0808   -0.4464   -1.1191 C   0  0  0  0  0  0  0  0  0  0  0  0
   -3.5271   -2.4759    0.7421 C   0  0  0  0  0  0  0  0  0  0  0  0
   -4.3838   -0.8468   -0.8230 C   0  0  0  0  0  0  0  0  0  0  0  0
   -4.6070   -1.8616    0.1077 C   0  0  0  0  0  0  0  0  0  0  0  0
    1.1061    1.2500   -1.2070 H   0  0  0  0  0  0  0  0  0  0  0  0
    1.2969    1.7893    1.7899 H   0  0  0  0  0  0  0  0  0  0  0  0
    2.4530    2.3854    0.5909 H   0  0  0  0  0  0  0  0  0  0  0  0
   -0.5537   -0.2864   -1.8421 H   0  0  0  0  0  0  0  0  0  0  0  0
    0.0357   -1.5151   -0.7168 H   0  0  0  0  0  0  0  0  0  0  0  0
    1.5820   -0.4688    2.1105 H   0  0  0  0  0  0  0  0  0  0  0  0
   -1.0450    2.7854    1.8796 H   0  0  0  0  0  0  0  0  0  0  0  0
    1.6816    4.2616   -0.9859 H   0  0  0  0  0  0  0  0  0  0  0  0
    4.2055   -2.3039   -1.6823 H   0  0  0  0  0  0  0  0  0  0  0  0
    3.1008   -2.3522    2.4796 H   0  0  0  0  0  0  0  0  0  0  0  0
   -1.9583    5.1760    0.8365 H   0  0  0  0  0  0  0  0  0  0  0  0
   -1.3916   -2.5599    0.9490 H   0  0  0  0  0  0  0  0  0  0  0  0
   -2.9199    0.3471   -1.8442 H   0  0  0  0  0  0  0  0  0  0  0  0
   -3.6860   -3.2676    1.4698 H   0  0  0  0  0  0  0  0  0  0  0  0
   -5.2154   -0.3588   -1.3247 H   0  0  0  0  0  0  0  0  0  0  0  0
  1 11  1  0  0  0  0
  2 18  1  0  0  0  0
  3 24  1  0  0  0  0
  4  7  1  0  0  0  0
  4 10  1  0  0  0  0
  5  8  1  0  0  0  0
  5 14  1  0  0  0  0
  5 15  1  0  0  0  0
  6 15  2  0  0  0  0
  6 19  1  0  0  0  0
  7  8  1  0  0  0  0
  7  9  1  0  0  0  0
  7 25  1  0  0  0  0
  8 26  1  0  0  0  0
  8 27  1  0  0  0  0
  9 11  2  0  0  0  0
  9 12  1  0  0  0  0
 10 13  1  0  0  0  0
 10 28  1  0  0  0  0
 10 29  1  0  0  0  0
 11 16  1  0  0  0  0
 12 17  2  0  0  0  0
 12 30  1  0  0  0  0
 13 20  2  0  0  0  0
 13 21  1  0  0  0  0
 14 19  2  0  0  0  0
 14 31  1  0  0  0  0
 15 32  1  0  0  0  0
 16 18  2  0  0  0  0
 16 33  1  0  0  0  0
 17 18  1  0  0  0  0
 17 34  1  0  0  0  0
 19 35  1  0  0  0  0
 20 22  1  0  0  0  0
 20 36  1  0  0  0  0
 21 23  2  0  0  0  0
 21 37  1  0  0  0  0
 22 24  2  0  0  0  0
 22 38  1  0  0  0  0
 23 24  1  0  0  0  0
 23 39  1  0  0  0  0
M  END
> <DATABASE_ID>
DB01127

> <DATABASE_NAME>
drugbank

> <ORIGINAL_SOURCE>
PUBCHEM

> <ORIGINAL_SOURCE_URL>
https://pubchem.ncbi.nlm.nih.gov/rest/pug/compound/inchikey/LEZWWPYKPKIXLL-UHFFFAOYSA-N/SDF?record_type=3d

> <SMILES>
ClC1=CC=C(COC(CN2C=CN=C2)C2=C(Cl)C=C(Cl)C=C2)C=C1

> <INCHI_IDENTIFIER>
InChI=1S/C18H15Cl3N2O/c19-14-3-1-13(2-4-14)11-24-18(10-23-8-7-22-12-23)16-6-5-15(20)9-17(16)21/h1-9,12,18H,10-11H2

> <INCHI_KEY>
LEZWWPYKPKIXLL-UHFFFAOYSA-N

> <FORMULA>
C18H15Cl3N2O

> <MOLECULAR_WEIGHT>
381.684

> <EXACT_MASS>
380.024996233

> <JCHEM_ACCEPTOR_COUNT>
2

> <JCHEM_AVERAGE_POLARIZABILITY>
37.37246253608513

> <JCHEM_BIOAVAILABILITY>
1

> <JCHEM_DONOR_COUNT>
0

> <JCHEM_FORMAL_CHARGE>
0

> <JCHEM_GHOSE_FILTER>
1

> <JCHEM_IUPAC>
1-{2-[(4-chlorophenyl)methoxy]-2-(2,4-dichlorophenyl)ethyl}-1H-imidazole

> <ALOGPS_LOGP>
4.67

> <JCHEM_LOGP>
5.352323684

> <ALOGPS_LOGS>
-5.41

> <JCHEM_MDDR_LIKE_RULE>
1

> <JCHEM_NUMBER_OF_RINGS>
3

> <JCHEM_PHYSIOLOGICAL_CHARGE>
0

> <JCHEM_PKA_STRONGEST_BASIC>
6.767291901775012

> <JCHEM_POLAR_SURFACE_AREA>
27.05

> <JCHEM_REFRACTIVITY>
98.26280000000001

> <JCHEM_ROTATABLE_BOND_COUNT>
6

> <JCHEM_RULE_OF_FIVE>
0

> <ALOGPS_SOLUBILITY>
1.48e-03 g/l

> <JCHEM_TRADITIONAL_IUPAC>
econazole

> <JCHEM_VEBER_RULE>
1

$$$$

  Mrv0541 02231215162D          

 89 95  0  0  0  0            999 V2000
    0.8659   -1.4342    0.0000 N   0  0  0  0  0  0  0  0  0  0  0  0
    4.0760   -4.0167    0.0000 N   0  0  0  0  0  0  0  0  0  0  0  0
    1.2357   -0.6982    0.0000 C   0  0  2  0  0  0  0  0  0  0  0  0
    1.2388   -2.1659    0.0000 C   0  0  0  0  0  0  0  0  0  0  0  0
    4.0806   -3.1867    0.0000 C   0  0  0  0  0  0  0  0  0  0  0  0
    1.1049   -5.0253    0.0000 C   0  0  2  0  0  0  0  0  0  0  0  0
    0.7917   -2.8564    0.0000 C   0  0  1  0  0  0  0  0  0  0  0  0
    1.9520   -0.2891    0.0000 C   0  0  0  0  0  0  0  0  0  0  0  0
    4.7961   -2.7818    0.0000 C   0  0  1  0  0  0  0  0  0  0  0  0
    1.1716   -3.5976    0.0000 N   0  0  0  0  0  0  0  0  0  0  0  0
    2.0099   -4.7885    0.0000 N   0  0  0  0  0  0  0  0  0  0  0  0
    4.8008   -1.9520    0.0000 N   0  0  0  0  0  0  0  0  0  0  0  0
    0.7245   -4.2882    0.0000 C   0  0  0  0  0  0  0  0  0  0  0  0
    2.6645   -0.7017    0.0000 N   0  0  0  0  0  0  0  0  0  0  0  0
   -2.6965   -8.2933    0.0000 S   0  0  0  0  0  0  0  0  0  0  0  0
    2.6254   -4.2375    0.0000 C   0  0  0  0  0  0  0  0  0  0  0  0
    3.4080   -4.4964    0.0000 C   0  0  2  0  0  0  0  0  0  0  0  0
    5.5211   -1.5435    0.0000 C   0  0  0  0  0  0  0  0  0  0  0  0
    9.9037    1.7199    0.0000 N   0  0  0  0  0  0  0  0  0  0  0  0
    0.7711   -5.7753    0.0000 C   0  0  1  0  0  0  0  0  0  0  0  0
   10.5689    0.5556    0.0000 C   0  0  0  0  0  0  0  0  0  0  0  0
    0.0410   -1.3965    0.0000 C   0  0  0  0  0  0  0  0  0  0  0  0
   11.1219    1.1666    0.0000 C   0  0  0  0  0  0  0  0  0  0  0  0
    9.8160    0.8984    0.0000 C   0  0  0  0  0  0  0  0  0  0  0  0
   10.7135    1.8869    0.0000 O   0  0  0  0  0  0  0  0  0  0  0  0
    0.6504   -0.1152    0.0000 C   0  0  2  0  0  0  0  0  0  0  0  0
    5.5204   -0.7213    0.0000 C   0  0  1  0  0  0  0  0  0  0  0  0
   -1.5434   -7.4535    0.0000 C   0  0  0  0  0  0  0  0  0  0  0  0
    6.9480   -0.7330    0.0000 C   0  0  0  0  0  0  0  0  0  0  0  0
    3.3848   -0.2933    0.0000 C   0  0  1  0  0  0  0  0  0  0  0  0
   -0.0868   -0.4958    0.0000 C   0  0  1  0  0  0  0  0  0  0  0  0
    6.2406   -0.3128    0.0000 N   0  0  0  0  0  0  0  0  0  0  0  0
   -0.0290   -2.8195    0.0000 C   0  0  1  0  0  0  0  0  0  0  0  0
   -2.3654   -7.5344    0.0000 O   0  0  0  0  0  0  0  0  0  0  0  0
   -0.4069   -2.0913    0.0000 C   0  0  0  0  0  0  0  0  0  0  0  0
   -0.0481   -5.8650    0.0000 C   0  0  2  0  0  0  0  0  0  0  0  0
   -0.3910   -6.6179    0.0000 C   0  0  0  0  0  0  0  0  0  0  0  0
    4.8124   -0.3051    0.0000 C   0  0  0  0  0  0  0  0  0  0  0  0
   -1.2046   -6.7001    0.0000 C   0  0  0  0  0  0  0  0  0  0  0  0
    4.7389   -4.5061    0.0000 C   0  0  0  0  0  0  0  0  0  0  0  0
    3.6590   -5.2811    0.0000 C   0  0  0  0  0  0  0  0  0  0  0  0
    4.0922   -0.7135    0.0000 C   0  0  1  0  0  0  0  0  0  0  0  0
   -1.2358   -2.0530    0.0000 C   0  0  0  0  0  0  0  0  0  0  0  0
    3.3686   -2.7700    0.0000 O   0  0  0  0  0  0  0  0  0  0  0  0
    2.0679   -2.2043    0.0000 O   0  0  0  0  0  0  0  0  0  0  0  0
   -1.9429   -8.6321    0.0000 O   0  0  0  0  0  0  0  0  0  0  0  0
   -3.4554   -7.9622    0.0000 O   0  0  0  0  0  0  0  0  0  0  0  0
   11.9393    1.0795    0.0000 C   0  0  0  0  0  0  0  0  0  0  0  0
    7.6682   -0.3246    0.0000 C   0  0  0  0  0  0  0  0  0  0  0  0
    1.9559    0.5368    0.0000 O   0  0  0  0  0  0  0  0  0  0  0  0
    9.0957    0.4900    0.0000 C   0  0  0  0  0  0  0  0  0  0  0  0
   -1.0554   -8.1227    0.0000 C   0  0  0  0  0  0  0  0  0  0  0  0
   -0.0963   -4.2511    0.0000 O   0  0  0  0  0  0  0  0  0  0  0  0
    2.4585   -3.4277    0.0000 O   0  0  0  0  0  0  0  0  0  0  0  0
    6.2283   -1.9637    0.0000 O   0  0  0  0  0  0  0  0  0  0  0  0
    6.9480   -1.5595    0.0000 O   0  0  0  0  0  0  0  0  0  0  0  0
    5.5082   -3.1986    0.0000 C   0  0  2  0  0  0  0  0  0  0  0  0
    4.4800   -5.2887    0.0000 C   0  0  1  0  0  0  0  0  0  0  0  0
    0.1023   -7.2795    0.0000 C   0  0  0  0  0  0  0  0  0  0  0  0
   -3.0381   -9.0379    0.0000 O   0  0  0  0  0  0  0  0  0  0  0  0
   -1.6747   -2.7447    0.0000 O   0  0  0  0  0  0  0  0  0  0  0  0
   -0.2322   -8.0336    0.0000 C   0  0  0  0  0  0  0  0  0  0  0  0
    7.6674    0.4978    0.0000 C   0  0  0  0  0  0  0  0  0  0  0  0
    8.3761   -0.7408    0.0000 C   0  0  0  0  0  0  0  0  0  0  0  0
    9.0963   -0.3323    0.0000 C   0  0  0  0  0  0  0  0  0  0  0  0
    8.3837    0.9067    0.0000 C   0  0  0  0  0  0  0  0  0  0  0  0
   12.4238    1.7391    0.0000 C   0  0  0  0  0  0  0  0  0  0  0  0
   12.2701    0.3206    0.0000 C   0  0  0  0  0  0  0  0  0  0  0  0
    1.2547   -6.4438    0.0000 O   0  0  0  0  0  0  0  0  0  0  0  0
   -1.6129   -1.3206    0.0000 N   0  0  0  0  0  0  0  0  0  0  0  0
    0.7752    0.7005    0.0000 O   0  0  0  0  0  0  0  0  0  0  0  0
    3.3842    0.5291    0.0000 O   0  0  0  0  0  0  0  0  0  0  0  0
   -0.5318   -5.1965    0.0000 O   0  0  0  0  0  0  0  0  0  0  0  0
   -0.4734   -3.5188    0.0000 O   0  0  0  0  0  0  0  0  0  0  0  0
   13.5803    0.8917    0.0000 C   0  0  0  0  0  0  0  0  0  0  0  0
    4.0882   -1.5393    0.0000 O   0  0  0  0  0  0  0  0  0  0  0  0
   13.2453    1.6514    0.0000 C   0  0  0  0  0  0  0  0  0  0  0  0
   13.0903    0.2246    0.0000 C   0  0  0  0  0  0  0  0  0  0  0  0
   -1.3936   -8.8721    0.0000 O   0  0  0  0  0  0  0  0  0  0  0  0
    4.9590   -5.9607    0.0000 O   0  0  0  0  0  0  0  0  0  0  0  0
    6.2244   -2.7896    0.0000 O   0  0  0  0  0  0  0  0  0  0  0  0
   -0.8175   -0.1184    0.0000 C   0  0  0  0  0  0  0  0  0  0  0  0
   14.4017    0.8041    0.0000 O   0  0  0  0  0  0  0  0  0  0  0  0
    5.5048   -4.0204    0.0000 C   0  0  0  0  0  0  0  0  0  0  0  0
   14.7332    0.0492    0.0000 C   0  0  0  0  0  0  0  0  0  0  0  0
   14.2480   -0.6146    0.0000 C   0  0  0  0  0  0  0  0  0  0  0  0
   14.0929   -2.0412    0.0000 C   0  0  0  0  0  0  0  0  0  0  0  0
   14.5787   -1.3735    0.0000 C   0  0  0  0  0  0  0  0  0  0  0  0
   14.4249   -2.7919    0.0000 C   0  0  0  0  0  0  0  0  0  0  0  0
  2 17  1  0  0  0  0
  3  1  1  0  0  0  0
  4  1  1  0  0  0  0
  5  2  1  0  0  0  0
  6 13  1  1  0  0  0
  7  4  1  1  0  0  0
  3  8  1  1  0  0  0
  9 12  1  0  0  0  0
 10  7  1  0  0  0  0
 11  6  1  0  0  0  0
 12 18  1  0  0  0  0
 13 10  1  0  0  0  0
 14  8  1  0  0  0  0
 15 34  1  0  0  0  0
 16 11  1  0  0  0  0
 17 16  1  1  0  0  0
 18 27  1  0  0  0  0
 19 24  2  0  0  0  0
 20  6  1  0  0  0  0
 21 24  1  0  0  0  0
 22  1  1  0  0  0  0
 23 21  2  0  0  0  0
 24 51  1  0  0  0  0
 25 19  1  0  0  0  0
 26  3  1  0  0  0  0
 27 38  1  6  0  0  0
 28 39  1  0  0  0  0
 29 32  1  0  0  0  0
 30 14  1  0  0  0  0
 31 22  1  0  0  0  0
 32 27  1  0  0  0  0
 33  7  1  0  0  0  0
 34 28  1  0  0  0  0
 35 33  1  0  0  0  0
 36 20  1  0  0  0  0
 37 36  1  0  0  0  0
 38 42  1  0  0  0  0
 39 37  2  0  0  0  0
 40  2  1  0  0  0  0
 41 17  1  0  0  0  0
 42 30  1  0  0  0  0
 43 35  1  0  0  0  0
 44  5  2  0  0  0  0
 45  4  2  0  0  0  0
 46 15  2  0  0  0  0
 47 15  2  0  0  0  0
 48 23  1  0  0  0  0
 49 29  1  0  0  0  0
 50  8  2  0  0  0  0
 51 65  2  0  0  0  0
 52 62  1  0  0  0  0
 53 13  2  0  0  0  0
 54 16  2  0  0  0  0
 55 18  2  0  0  0  0
 56 29  2  0  0  0  0
 57  9  1  0  0  0  0
 58 41  1  0  0  0  0
 59 37  1  0  0  0  0
 60 15  1  0  0  0  0
 61 43  2  0  0  0  0
 62 59  2  0  0  0  0
 63 49  1  0  0  0  0
 64 49  2  0  0  0  0
 65 64  1  0  0  0  0
 66 63  2  0  0  0  0
 67 48  1  0  0  0  0
 68 48  2  0  0  0  0
 20 69  1  6  0  0  0
 70 43  1  0  0  0  0
 26 71  1  6  0  0  0
 30 72  1  6  0  0  0
 36 73  1  6  0  0  0
 33 74  1  6  0  0  0
 75 78  2  0  0  0  0
 42 76  1  1  0  0  0
 77 67  2  0  0  0  0
 78 68  1  0  0  0  0
 79 52  1  0  0  0  0
 58 80  1  6  0  0  0
 57 81  1  6  0  0  0
 31 82  1  6  0  0  0
 83 75  1  0  0  0  0
 84 57  1  0  0  0  0
 85 83  1  0  0  0  0
 86 85  1  0  0  0  0
 87 88  1  0  0  0  0
 88 86  1  0  0  0  0
 89 87  1  0  0  0  0
 26 31  1  0  0  0  0
 58 40  1  0  0  0  0
  9  5  1  1  0  0  0
 28 52  2  0  0  0  0
 66 51  1  0  0  0  0
 23 25  1  0  0  0  0
 77 75  1  0  0  0  0
M  END
> <DATABASE_ID>
DB01141

> <DATABASE_NAME>
drugbank

> <SMILES>
CCCCCOC1=CC=C(C=C1)C1=CC(=NO1)C1=CC=C(C=C1)C(=O)N[C@H]1C[C@@H](O)[C@@H](O)NC(=O)[C@@H]2[C@@H](O)[C@@H](C)CN2C(=O)[C@@H](NC(=O)[C@@H](NC(=O)[C@@H]2C[C@@H](O)CN2C(=O)[C@@H](NC1=O)[C@@H](C)O)[C@H](O)[C@@H](O)C1=CC(OS(O)(=O)=O)=C(O)C=C1)[C@H](O)CC(N)=O

> <INCHI_IDENTIFIER>
InChI=1S/C56H71N9O23S/c1-4-5-6-17-86-32-14-11-28(12-15-32)39-21-33(63-87-39)27-7-9-29(10-8-27)49(75)58-34-20-38(70)52(78)62-54(80)45-46(72)25(2)23-65(45)56(82)43(37(69)22-41(57)71)60-53(79)44(48(74)47(73)30-13-16-36(68)40(18-30)88-89(83,84)85)61-51(77)35-19-31(67)24-64(35)55(81)42(26(3)66)59-50(34)76/h7-16,18,21,25-26,31,34-35,37-38,42-48,52,66-70,72-74,78H,4-6,17,19-20,22-24H2,1-3H3,(H2,57,71)(H,58,75)(H,59,76)(H,60,79)(H,61,77)(H,62,80)(H,83,84,85)/t25-,26+,31+,34-,35-,37+,38+,42-,43-,44-,45-,46-,47-,48-,52+/m0/s1

> <INCHI_KEY>
PIEUQSKUWLMALL-YABMTYFHSA-N

> <FORMULA>
C56H71N9O23S

> <MOLECULAR_WEIGHT>
1270.274

> <EXACT_MASS>
1269.438350313

> <JCHEM_ACCEPTOR_COUNT>
22

> <JCHEM_AVERAGE_POLARIZABILITY>
128.21954434215644

> <JCHEM_BIOAVAILABILITY>
0

> <JCHEM_DONOR_COUNT>
16

> <JCHEM_FORMAL_CHARGE>
0

> <JCHEM_GHOSE_FILTER>
0

> <JCHEM_IUPAC>
{5-[(1S,2S)-2-[(3S,6S,9S,11R,15S,18S,20R,21R,24S,25S,26S)-3-[(1R)-2-carbamoyl-1-hydroxyethyl]-11,20,21,25-tetrahydroxy-15-[(1R)-1-hydroxyethyl]-26-methyl-2,5,8,14,17,23-hexaoxo-18-(4-{5-[4-(pentyloxy)phenyl]-1,2-oxazol-3-yl}benzamido)-1,4,7,13,16,22-hexaazatricyclo[22.3.0.0⁹,¹³]heptacosan-6-yl]-1,2-dihydroxyethyl]-2-hydroxyphenyl}oxidanesulfonic acid

> <ALOGPS_LOGP>
0.67

> <JCHEM_LOGP>
-6.338448322891082

> <ALOGPS_LOGS>
-3.77

> <JCHEM_MDDR_LIKE_RULE>
1

> <JCHEM_NUMBER_OF_RINGS>
7

> <JCHEM_PHYSIOLOGICAL_CHARGE>
-1

> <JCHEM_PKA>
10.049824673608214

> <JCHEM_PKA_STRONGEST_ACIDIC>
-2.188257305264612

> <JCHEM_PKA_STRONGEST_BASIC>
-3.558083874308431

> <JCHEM_POLAR_SURFACE_AREA>
510.1400000000001

> <JCHEM_REFRACTIVITY>
303.07099999999997

> <JCHEM_ROTATABLE_BOND_COUNT>
18

> <JCHEM_RULE_OF_FIVE>
0

> <ALOGPS_SOLUBILITY>
2.18e-01 g/l

> <JCHEM_TRADITIONAL_IUPAC>
micafungin

> <JCHEM_VEBER_RULE>
0

> <DRUGBANK_ID>
DB01141

> <SECONDARY_ACCESSION_NUMBERS>
APRD01114

> <DRUG_GROUPS>
approved; investigational

> <GENERIC_NAME>
Micafungin

> <SYNONYMS>
Micafungin; Micafungina

> <PRODUCTS>
Micafungin; Mycamine

> <SALTS>
Micafungin sodium

$$$$

  Mrv1909 08181923252D          

 79 81  0  0  0  0            999 V2000
   -6.1673   -0.2818    0.0000 C   0  0  0  0  0  0  0  0  0  0  0  0
   -6.5802   -0.9959    0.0000 C   0  0  2  0  0  0  0  0  0  0  0  0
   -7.4013   -0.9959    0.0000 C   0  0  2  0  0  0  0  0  0  0  0  0
   -4.1998    2.4922    0.0000 C   0  0  0  0  0  0  0  0  0  0  0  0
   -6.5802    0.4322    0.0000 O   0  0  0  0  0  0  0  0  0  0  0  0
   -7.8190   -0.2818    0.0000 C   0  0  1  0  0  0  0  0  0  0  0  0
   -3.4808    2.9002    0.0000 C   0  0  0  0  0  0  0  0  0  0  0  0
   -4.2046    1.6663    0.0000 C   0  0  0  0  0  0  0  0  0  0  0  0
    6.5026    1.2145    0.0000 O   0  0  0  0  0  0  0  0  0  0  0  0
    7.2216    1.6274    0.0000 C   0  0  0  0  0  0  0  0  0  0  0  0
    6.5026    0.3886    0.0000 C   0  0  0  0  0  0  0  0  0  0  0  0
   -7.4013    0.4322    0.0000 C   0  0  1  0  0  0  0  0  0  0  0  0
   -4.9140    2.9099    0.0000 C   0  0  0  0  0  0  0  0  0  0  0  0
    7.2118   -2.5019    0.0000 C   0  0  0  0  0  0  0  0  0  0  0  0
    6.4977   -2.0889    0.0000 C   0  0  0  0  0  0  0  0  0  0  0  0
   -2.7716    2.4825    0.0000 C   0  0  0  0  0  0  0  0  0  0  0  0
    7.2216    2.4533    0.0000 C   0  0  0  0  0  0  0  0  0  0  0  0
   -5.3414   -0.2818    0.0000 O   0  0  0  0  0  0  0  0  0  0  0  0
   -4.9236    1.2582    0.0000 C   0  0  0  0  0  0  0  0  0  0  0  0
   -2.0524    2.8905    0.0000 C   0  0  0  0  0  0  0  0  0  0  0  0
    7.2167   -0.0242    0.0000 C   0  0  0  0  0  0  0  0  0  0  0  0
    7.2167   -0.8502    0.0000 C   0  0  0  0  0  0  0  0  0  0  0  0
    7.9308   -2.0889    0.0000 C   0  0  0  0  0  0  0  0  0  0  0  0
    5.7835   -2.5019    0.0000 C   0  0  0  0  0  0  0  0  0  0  0  0
   -4.9285    0.4322    0.0000 C   0  0  0  0  0  0  0  0  0  0  0  0
   -1.3383    2.4727    0.0000 C   0  0  0  0  0  0  0  0  0  0  0  0
    7.9308   -1.2630    0.0000 C   0  0  0  0  0  0  0  0  0  0  0  0
    6.5075    2.8662    0.0000 C   0  0  0  0  0  0  0  0  0  0  0  0
    7.9357    1.2097    0.0000 O   0  0  0  0  0  0  0  0  0  0  0  0
    2.9513    2.4484    0.0000 C   0  0  0  0  0  0  0  0  0  0  0  0
    5.7884   -0.0194    0.0000 C   0  0  0  0  0  0  0  0  0  0  0  0
   -4.9091    3.7358    0.0000 O   0  0  0  0  0  0  0  0  0  0  0  0
    1.5230    2.4581    0.0000 C   0  0  0  0  0  0  0  0  0  0  0  0
    0.0899    2.4679    0.0000 C   0  0  0  0  0  0  0  0  0  0  0  0
    3.6702    2.8565    0.0000 C   0  0  0  0  0  0  0  0  0  0  0  0
    6.4977   -1.2630    0.0000 O   0  0  0  0  0  0  0  0  0  0  0  0
   -0.6193    2.8856    0.0000 C   0  0  0  0  0  0  0  0  0  0  0  0
    2.2371    2.8662    0.0000 C   0  0  0  0  0  0  0  0  0  0  0  0
    0.8089    2.8760    0.0000 C   0  0  0  0  0  0  0  0  0  0  0  0
   -7.8142   -1.7101    0.0000 N   0  0  0  0  0  0  0  0  0  0  0  0
   -2.0475    3.7164    0.0000 O   0  0  0  0  0  0  0  0  0  0  0  0
   -2.0670    0.4177    0.0000 C   0  0  0  0  0  0  0  0  0  0  0  0
   -1.3529    0.0048    0.0000 C   0  0  0  0  0  0  0  0  0  0  0  0
   -0.6388    0.4129    0.0000 C   0  0  0  0  0  0  0  0  0  0  0  0
    0.0753    0.0000    0.0000 C   0  0  0  0  0  0  0  0  0  0  0  0
    0.7894    0.4080    0.0000 C   0  0  0  0  0  0  0  0  0  0  0  0
    1.5035   -0.0048    0.0000 C   0  0  0  0  0  0  0  0  0  0  0  0
    2.2177    0.4032    0.0000 C   0  0  0  0  0  0  0  0  0  0  0  0
    2.9318   -0.0096    0.0000 C   0  0  0  0  0  0  0  0  0  0  0  0
    3.6459    0.3984    0.0000 C   0  0  0  0  0  0  0  0  0  0  0  0
   -2.7812    0.0096    0.0000 C   0  0  0  0  0  0  0  0  0  0  0  0
    4.3602   -0.0145    0.0000 C   0  0  0  0  0  0  0  0  0  0  0  0
   -3.4954    0.4226    0.0000 C   0  0  0  0  0  0  0  0  0  0  0  0
   -4.2144    0.0145    0.0000 C   0  0  0  0  0  0  0  0  0  0  0  0
    5.0743    0.3935    0.0000 C   0  0  0  0  0  0  0  0  0  0  0  0
    6.5075    3.6921    0.0000 O   0  0  0  0  0  0  0  0  0  0  0  0
    3.6751    3.6823    0.0000 O   0  0  0  0  0  0  0  0  0  0  0  0
   -6.1624   -1.7101    0.0000 O   0  0  0  0  0  0  0  0  0  0  0  0
    5.0694   -2.0840    0.0000 C   0  0  0  0  0  0  0  0  0  0  0  0
    5.7884   -3.3229    0.0000 C   0  0  0  0  0  0  0  0  0  0  0  0
   -8.6450   -0.2818    0.0000 O   0  0  0  0  0  0  0  0  0  0  0  0
   -3.4759    3.7261    0.0000 O   0  0  0  0  0  0  0  0  0  0  0  0
   -3.4905    1.2484    0.0000 O   0  0  0  0  0  0  0  0  0  0  0  0
   -5.6281    2.5019    0.0000 O   0  0  0  0  0  0  0  0  0  0  0  0
    4.3553   -3.3229    0.0000 C   0  0  0  0  0  0  0  0  0  0  0  0
    3.6410   -3.7358    0.0000 N   0  0  0  0  0  0  0  0  0  0  0  0
    4.3553   -2.4971    0.0000 C   0  0  0  0  0  0  0  0  0  0  0  0
    5.0743   -3.7358    0.0000 C   0  0  0  0  0  0  0  0  0  0  0  0
    8.6450   -2.5019    0.0000 O   0  0  0  0  0  0  0  0  0  0  0  0
    0.8137    3.7018    0.0000 O   0  0  0  0  0  0  0  0  0  0  0  0
    2.2419    3.6921    0.0000 O   0  0  0  0  0  0  0  0  0  0  0  0
   -0.6145    3.7115    0.0000 O   0  0  0  0  0  0  0  0  0  0  0  0
   -7.8142    1.1514    0.0000 C   0  0  0  0  0  0  0  0  0  0  0  0
    5.0986    2.8516    0.0000 C   0  0  0  0  0  0  0  0  0  0  0  0
    7.9308    0.3886    0.0000 C   0  0  0  0  0  0  0  0  0  0  0  0
    5.7933    2.4533    0.0000 C   0  0  0  0  0  0  0  0  0  0  0  0
    4.3844    2.4435    0.0000 C   0  0  0  0  0  0  0  0  0  0  0  0
    8.6450   -0.8502    0.0000 C   0  0  0  0  0  0  0  0  0  0  0  0
    5.7835   -0.8453    0.0000 C   0  0  0  0  0  0  0  0  0  0  0  0
  2  1  1  0  0  0  0
  3  2  1  0  0  0  0
  4  8  1  0  0  0  0
  5  1  1  0  0  0  0
  6 12  1  0  0  0  0
  7  4  1  0  0  0  0
  8 19  1  0  0  0  0
  9 11  1  0  0  0  0
 10  9  1  0  0  0  0
 11 31  1  0  0  0  0
 12  5  1  0  0  0  0
 13  4  1  0  0  0  0
 14 23  1  0  0  0  0
 15 14  1  0  0  0  0
 16  7  1  0  0  0  0
 17 10  1  0  0  0  0
  1 18  1  0  0  0  0
 19 25  1  0  0  0  0
 20 16  1  0  0  0  0
 21 11  1  0  0  0  0
 22 21  1  0  0  0  0
 23 27  1  0  0  0  0
 24 15  1  0  0  0  0
 25 18  1  0  0  0  0
 26 20  1  0  0  0  0
 27 22  1  0  0  0  0
 28 76  1  0  0  0  0
 29 10  2  0  0  0  0
 30 38  1  0  0  0  0
 31 55  1  0  0  0  0
 32 13  2  0  0  0  0
 33 39  1  0  0  0  0
 34 37  1  0  0  0  0
 35 30  1  0  0  0  0
 36 15  2  0  0  0  0
 37 26  1  0  0  0  0
 38 33  1  0  0  0  0
 39 34  1  0  0  0  0
  3 40  1  1  0  0  0
 41 20  2  0  0  0  0
 42 51  2  0  0  0  0
 43 42  1  0  0  0  0
 44 43  2  0  0  0  0
 45 44  1  0  0  0  0
 46 45  2  0  0  0  0
 47 46  1  0  0  0  0
 48 47  2  0  0  0  0
 49 48  1  0  0  0  0
 50 49  2  0  0  0  0
 51 53  1  0  0  0  0
 52 50  1  0  0  0  0
 53 54  2  0  0  0  0
 54 25  1  0  0  0  0
 55 52  2  0  0  0  0
 56 28  2  0  0  0  0
 57 35  2  0  0  0  0
  2 58  1  1  0  0  0
 59 24  2  0  0  0  0
 60 24  1  0  0  0  0
  6 61  1  6  0  0  0
 62  7  1  0  0  0  0
 63  8  1  0  0  0  0
 64 13  1  0  0  0  0
 65 68  1  0  0  0  0
 66 65  1  0  0  0  0
 67 59  1  0  0  0  0
 68 60  2  0  0  0  0
 69 23  1  0  0  0  0
 70 39  1  0  0  0  0
 71 38  1  0  0  0  0
 72 37  1  0  0  0  0
 12 73  1  1  0  0  0
 74 77  1  0  0  0  0
 75 21  1  0  0  0  0
 76 74  1  0  0  0  0
 77 35  1  0  0  0  0
 78 27  1  0  0  0  0
 79 31  1  0  0  0  0
  6  3  1  0  0  0  0
 28 17  1  0  0  0  0
 65 67  2  0  0  0  0
M  END
> <DATABASE_ID>
DB01152

> <DATABASE_NAME>
drugbank

> <SMILES>
CC(CC(C)C1OC(=O)CC(=O)CCCC(=O)CC(O)CC(O)CC(O)CC(=O)CC(O)C(C(O)CC(OC2O[C@H](C)[C@@H](O)[C@H](N)[C@@H]2O)\C=C\C=C\C=C\C=C\C=C\C=C\C=C\C1C)C(O)=O)C(O)CC(=O)C1=CC=C(N)C=C1

> <INCHI_IDENTIFIER>
InChI=1S/C59H84N2O18/c1-35-18-15-13-11-9-7-5-6-8-10-12-14-16-21-47(78-59-56(74)54(61)55(73)38(4)77-59)33-51(71)53(58(75)76)50(70)31-46(67)30-45(66)29-44(65)28-43(64)27-41(62)19-17-20-42(63)32-52(72)79-57(35)37(3)26-36(2)48(68)34-49(69)39-22-24-40(60)25-23-39/h5-16,18,21-25,35-38,43-45,47-48,50-51,53-57,59,64-66,68,70-71,73-74H,17,19-20,26-34,60-61H2,1-4H3,(H,75,76)/b6-5+,9-7+,10-8+,13-11+,14-12+,18-15+,21-16+/t35?,36?,37?,38-,43?,44?,45?,47?,48?,50?,51?,53?,54+,55-,56+,57?,59?/m1/s1

> <INCHI_KEY>
OPGSFDUODIJJGF-JBUZINEHSA-N

> <FORMULA>
C59H84N2O18

> <MOLECULAR_WEIGHT>
1109.317

> <EXACT_MASS>
1108.571913873

> <JCHEM_ACCEPTOR_COUNT>
19

> <JCHEM_ATOM_COUNT>
163

> <JCHEM_AVERAGE_POLARIZABILITY>
118.61397677251071

> <JCHEM_BIOAVAILABILITY>
0

> <JCHEM_DONOR_COUNT>
11

> <JCHEM_FORMAL_CHARGE>
0

> <JCHEM_GHOSE_FILTER>
0

> <JCHEM_IUPAC>
(23E,25E,27E,29E,31E,33E,35E)-22-{[(3S,4S,5S,6R)-4-amino-3,5-dihydroxy-6-methyloxan-2-yl]oxy}-38-[7-(4-aminophenyl)-5-hydroxy-4-methyl-7-oxoheptan-2-yl]-10,12,14,18,20-pentahydroxy-37-methyl-2,4,8,16-tetraoxo-1-oxacyclooctatriaconta-23,25,27,29,31,33,35-heptaene-19-carboxylic acid

> <ALOGPS_LOGP>
-0.76

> <JCHEM_LOGP>
-0.028119118470332462

> <ALOGPS_LOGS>
-5.19

> <JCHEM_MDDR_LIKE_RULE>
1

> <JCHEM_NUMBER_OF_RINGS>
3

> <JCHEM_PHYSIOLOGICAL_CHARGE>
0

> <JCHEM_PKA>
10.146986061481469

> <JCHEM_PKA_STRONGEST_ACIDIC>
3.6844941739164736

> <JCHEM_PKA_STRONGEST_BASIC>
9.071718053390988

> <JCHEM_POLAR_SURFACE_AREA>
364.22

> <JCHEM_REFRACTIVITY>
302.1224999999999

> <JCHEM_ROTATABLE_BOND_COUNT>
10

> <JCHEM_RULE_OF_FIVE>
0

> <ALOGPS_SOLUBILITY>
7.14e-03 g/l

> <JCHEM_TRADITIONAL_IUPAC>
candicidin D

> <JCHEM_VEBER_RULE>
0

> <DRUGBANK_ID>
DB01152

> <SECONDARY_ACCESSION_NUMBERS>
APRD00843

> <DRUG_GROUPS>
approved; withdrawn

> <GENERIC_NAME>
Candicidin

> <SYNONYMS>
Candicidin; Candicidina; Candicidine; Candicidinum; Candizidin; Levorin; Levorina; Levorine; Levorinum

> <INTERNATIONAL_BRANDS>
Vanobid

$$$$
65863
  -OEChem-10051719303D

 42 45  0     1  0  0  0  0  0999 V2000
   -2.9484    1.3690   -2.5739 Cl  0  0  0  0  0  0  0  0  0  0  0  0
    6.4792   -1.0440    0.2440 Cl  0  0  0  0  0  0  0  0  0  0  0  0
   -1.9851    5.6894    0.4883 Cl  0  0  0  0  0  0  0  0  0  0  0  0
    3.6810   -2.0745   -1.3310 S   0  0  0  0  0  0  0  0  0  0  0  0
   -0.6043   -0.7213   -0.0960 O   0  0  0  0  0  0  0  0  0  0  0  0
   -2.8115   -2.4448    0.7545 N   0  0  0  0  0  0  0  0  0  0  0  0
   -3.5105   -4.4289    0.0892 N   0  0  0  0  0  0  0  0  0  0  0  0
   -1.9519   -0.2796   -0.1676 C   0  0  1  0  0  0  0  0  0  0  0  0
   -2.7681   -0.9967    0.9173 C   0  0  0  0  0  0  0  0  0  0  0  0
   -1.9721    1.2263   -0.0332 C   0  0  0  0  0  0  0  0  0  0  0  0
    0.1853   -0.1528   -1.1366 C   0  0  0  0  0  0  0  0  0  0  0  0
    1.5833   -0.6395   -1.0253 C   0  0  0  0  0  0  0  0  0  0  0  0
    2.6040    0.0177   -0.2593 C   0  0  0  0  0  0  0  0  0  0  0  0
   -2.4074    2.0310   -1.0744 C   0  0  0  0  0  0  0  0  0  0  0  0
   -1.5408    1.7726    1.1662 C   0  0  0  0  0  0  0  0  0  0  0  0
    3.8188   -0.6701   -0.3400 C   0  0  0  0  0  0  0  0  0  0  0  0
    2.0333   -1.7777   -1.6511 C   0  0  0  0  0  0  0  0  0  0  0  0
   -1.9289   -3.3296    1.2840 C   0  0  0  0  0  0  0  0  0  0  0  0
   -3.7426   -3.1358    0.0474 C   0  0  0  0  0  0  0  0  0  0  0  0
    2.5535    1.1977    0.5216 C   0  0  0  0  0  0  0  0  0  0  0  0
   -2.4115    3.4166   -0.9129 C   0  0  0  0  0  0  0  0  0  0  0  0
   -1.5449    3.1580    1.3275 C   0  0  0  0  0  0  0  0  0  0  0  0
    4.9699   -0.2133    0.3315 C   0  0  0  0  0  0  0  0  0  0  0  0
   -1.9803    3.9800    0.2880 C   0  0  0  0  0  0  0  0  0  0  0  0
   -2.3814   -4.5566    0.8590 C   0  0  0  0  0  0  0  0  0  0  0  0
    3.6933    1.6532    1.1892 C   0  0  0  0  0  0  0  0  0  0  0  0
    4.8880    0.9538    1.0935 C   0  0  0  0  0  0  0  0  0  0  0  0
   -2.3490   -0.6253   -1.1264 H   0  0  0  0  0  0  0  0  0  0  0  0
   -2.3532   -0.8253    1.9179 H   0  0  0  0  0  0  0  0  0  0  0  0
   -3.8061   -0.6421    0.9256 H   0  0  0  0  0  0  0  0  0  0  0  0
   -0.2299   -0.4499   -2.1085 H   0  0  0  0  0  0  0  0  0  0  0  0
    0.2016    0.9407   -1.1069 H   0  0  0  0  0  0  0  0  0  0  0  0
   -1.1835    1.1527    1.9829 H   0  0  0  0  0  0  0  0  0  0  0  0
    1.4724   -2.4533   -2.2822 H   0  0  0  0  0  0  0  0  0  0  0  0
   -1.0857   -3.0338    1.8926 H   0  0  0  0  0  0  0  0  0  0  0  0
   -4.5600   -2.6591   -0.4763 H   0  0  0  0  0  0  0  0  0  0  0  0
    1.6297    1.7629    0.6134 H   0  0  0  0  0  0  0  0  0  0  0  0
   -2.7507    4.0592   -1.7226 H   0  0  0  0  0  0  0  0  0  0  0  0
   -1.2025    3.5834    2.2675 H   0  0  0  0  0  0  0  0  0  0  0  0
    3.6413    2.5599    1.7855 H   0  0  0  0  0  0  0  0  0  0  0  0
   -1.9509   -5.5252    1.0674 H   0  0  0  0  0  0  0  0  0  0  0  0
    5.7607    1.3299    1.6225 H   0  0  0  0  0  0  0  0  0  0  0  0
  1 14  1  0  0  0  0
  2 23  1  0  0  0  0
  3 24  1  0  0  0  0
  4 16  1  0  0  0  0
  4 17  1  0  0  0  0
  5  8  1  0  0  0  0
  5 11  1  0  0  0  0
  6  9  1  0  0  0  0
  6 18  1  0  0  0  0
  6 19  1  0  0  0  0
  7 19  2  0  0  0  0
  7 25  1  0  0  0  0
  8  9  1  0  0  0  0
  8 10  1  0  0  0  0
  8 28  1  0  0  0  0
  9 29  1  0  0  0  0
  9 30  1  0  0  0  0
 10 14  2  0  0  0  0
 10 15  1  0  0  0  0
 11 12  1  0  0  0  0
 11 31  1  0  0  0  0
 11 32  1  0  0  0  0
 12 13  1  0  0  0  0
 12 17  2  0  0  0  0
 13 16  2  0  0  0  0
 13 20  1  0  0  0  0
 14 21  1  0  0  0  0
 15 22  2  0  0  0  0
 15 33  1  0  0  0  0
 16 23  1  0  0  0  0
 17 34  1  0  0  0  0
 18 25  2  0  0  0  0
 18 35  1  0  0  0  0
 19 36  1  0  0  0  0
 20 26  2  0  0  0  0
 20 37  1  0  0  0  0
 21 24  2  0  0  0  0
 21 38  1  0  0  0  0
 22 24  1  0  0  0  0
 22 39  1  0  0  0  0
 23 27  2  0  0  0  0
 25 41  1  0  0  0  0
 26 27  1  0  0  0  0
 26 40  1  0  0  0  0
 27 42  1  0  0  0  0
M  END
> <DATABASE_ID>
DB01153

> <DATABASE_NAME>
drugbank

> <ORIGINAL_SOURCE>
PUBCHEM

> <ORIGINAL_SOURCE_URL>
https://pubchem.ncbi.nlm.nih.gov/rest/pug/compound/inchikey/JLGKQTAYUIMGRK-UHFFFAOYSA-N/SDF?record_type=3d

> <SMILES>
ClC1=CC(Cl)=C(C=C1)C(CN1C=CN=C1)OCC1=CSC2=C1C=CC=C2Cl

> <INCHI_IDENTIFIER>
InChI=1S/C20H15Cl3N2OS/c21-14-4-5-16(18(23)8-14)19(9-25-7-6-24-12-25)26-10-13-11-27-20-15(13)2-1-3-17(20)22/h1-8,11-12,19H,9-10H2

> <INCHI_KEY>
JLGKQTAYUIMGRK-UHFFFAOYSA-N

> <FORMULA>
C20H15Cl3N2OS

> <MOLECULAR_WEIGHT>
437.77

> <EXACT_MASS>
435.997066923

> <JCHEM_ACCEPTOR_COUNT>
2

> <JCHEM_AVERAGE_POLARIZABILITY>
42.931925497274996

> <JCHEM_BIOAVAILABILITY>
1

> <JCHEM_DONOR_COUNT>
0

> <JCHEM_FORMAL_CHARGE>
0

> <JCHEM_GHOSE_FILTER>
0

> <JCHEM_IUPAC>
1-{2-[(7-chloro-1-benzothiophen-3-yl)methoxy]-2-(2,4-dichlorophenyl)ethyl}-1H-imidazole

> <ALOGPS_LOGP>
5.74

> <JCHEM_LOGP>
6.228348480333333

> <ALOGPS_LOGS>
-4.84

> <JCHEM_MDDR_LIKE_RULE>
1

> <JCHEM_NUMBER_OF_RINGS>
4

> <JCHEM_PHYSIOLOGICAL_CHARGE>
0

> <JCHEM_PKA_STRONGEST_BASIC>
6.767291901573991

> <JCHEM_POLAR_SURFACE_AREA>
27.05

> <JCHEM_REFRACTIVITY>
111.60290000000002

> <JCHEM_ROTATABLE_BOND_COUNT>
6

> <JCHEM_RULE_OF_FIVE>
0

> <ALOGPS_SOLUBILITY>
6.37e-03 g/l

> <JCHEM_TRADITIONAL_IUPAC>
sertaconazole

> <JCHEM_VEBER_RULE>
1

$$$$
55283
  -OEChem-09261817073D

 87 93  0     1  0  0  0  0  0999 V2000
   -6.5254   -1.7467   -1.6377 Cl  0  0  0  0  0  0  0  0  0  0  0  0
  -11.5805   -3.4460   -2.3610 Cl  0  0  0  0  0  0  0  0  0  0  0  0
   -6.5057    0.1500    0.1449 O   0  0  0  0  0  0  0  0  0  0  0  0
   -8.3570    1.3719    0.8979 O   0  0  0  0  0  0  0  0  0  0  0  0
   -4.4627   -1.0299    1.7785 O   0  0  0  0  0  0  0  0  0  0  0  0
    9.6186    1.0866   -1.9247 O   0  0  0  0  0  0  0  0  0  0  0  0
    1.0343   -0.7866    1.0282 N   0  0  0  0  0  0  0  0  0  0  0  0
    3.8826   -0.6581    0.6355 N   0  0  0  0  0  0  0  0  0  0  0  0
   -6.5853    2.8191   -0.8402 N   0  0  0  0  0  0  0  0  0  0  0  0
    9.4016   -0.4097   -0.1285 N   0  0  0  0  0  0  0  0  0  0  0  0
   -7.0572    3.9226   -0.2405 N   0  0  0  0  0  0  0  0  0  0  0  0
   11.4386    0.0460   -0.8448 N   0  0  0  0  0  0  0  0  0  0  0  0
   -4.7737    3.9487   -0.3735 N   0  0  0  0  0  0  0  0  0  0  0  0
   11.5740   -0.8327    0.1879 N   0  0  0  0  0  0  0  0  0  0  0  0
   -7.7691    0.7239   -0.2483 C   0  0  1  0  0  0  0  0  0  0  0  0
   -6.5260    0.1565    1.5740 C   0  0  2  0  0  0  0  0  0  0  0  0
   -7.3298    1.3911    1.8892 C   0  0  0  0  0  0  0  0  0  0  0  0
    1.7997   -1.9795    0.6668 C   0  0  0  0  0  0  0  0  0  0  0  0
    1.7604    0.4737    1.1841 C   0  0  0  0  0  0  0  0  0  0  0  0
    3.2471   -1.8695    1.1540 C   0  0  0  0  0  0  0  0  0  0  0  0
    3.0264    0.4860    0.3229 C   0  0  0  0  0  0  0  0  0  0  0  0
   -7.4910    1.7814   -1.3160 C   0  0  0  0  0  0  0  0  0  0  0  0
   -8.7047   -0.3456   -0.7922 C   0  0  0  0  0  0  0  0  0  0  0  0
   -5.1170    0.1812    2.1259 C   0  0  0  0  0  0  0  0  0  0  0  0
   -0.3438   -0.8485    1.2172 C   0  0  0  0  0  0  0  0  0  0  0  0
    5.2604   -0.5963    0.4446 C   0  0  0  0  0  0  0  0  0  0  0  0
   -8.2194   -1.4873   -1.4301 C   0  0  0  0  0  0  0  0  0  0  0  0
  -10.0790   -0.1631   -0.6391 C   0  0  0  0  0  0  0  0  0  0  0  0
   -0.9647    0.0228    2.1121 C   0  0  0  0  0  0  0  0  0  0  0  0
   -1.1035   -1.7804    0.5102 C   0  0  0  0  0  0  0  0  0  0  0  0
   -3.1052   -0.9700    1.5935 C   0  0  0  0  0  0  0  0  0  0  0  0
    6.1116   -1.3429    1.2592 C   0  0  0  0  0  0  0  0  0  0  0  0
    5.7895    0.2124   -0.5613 C   0  0  0  0  0  0  0  0  0  0  0  0
   -2.3455   -0.0380    2.3003 C   0  0  0  0  0  0  0  0  0  0  0  0
   -2.4843   -1.8412    0.6985 C   0  0  0  0  0  0  0  0  0  0  0  0
    8.0210   -0.4720    0.0625 C   0  0  0  0  0  0  0  0  0  0  0  0
    7.4919   -1.2808    1.0682 C   0  0  0  0  0  0  0  0  0  0  0  0
    7.1698    0.2746   -0.7522 C   0  0  0  0  0  0  0  0  0  0  0  0
   -9.1084   -2.4466   -1.9146 C   0  0  0  0  0  0  0  0  0  0  0  0
  -10.9681   -1.1225   -1.1239 C   0  0  0  0  0  0  0  0  0  0  0  0
   -5.2274    2.8424   -0.9155 C   0  0  0  0  0  0  0  0  0  0  0  0
   12.5337    0.5997   -1.5962 C   0  0  1  0  0  0  0  0  0  0  0  0
  -10.4828   -2.2641   -1.7617 C   0  0  0  0  0  0  0  0  0  0  0  0
   10.0824    0.3381   -1.0758 C   0  0  0  0  0  0  0  0  0  0  0  0
   13.4805    1.4029   -0.6952 C   0  0  0  0  0  0  0  0  0  0  0  0
   -5.9219    4.5732    0.0221 C   0  0  0  0  0  0  0  0  0  0  0  0
   10.3571   -1.0616    0.5649 C   0  0  0  0  0  0  0  0  0  0  0  0
   13.2846   -0.5192   -2.3107 C   0  0  0  0  0  0  0  0  0  0  0  0
   12.7733    2.5338    0.0405 C   0  0  0  0  0  0  0  0  0  0  0  0
   -7.0517   -0.7534    1.8898 H   0  0  0  0  0  0  0  0  0  0  0  0
   -7.7773    1.3538    2.8866 H   0  0  0  0  0  0  0  0  0  0  0  0
   -6.7490    2.3121    1.8138 H   0  0  0  0  0  0  0  0  0  0  0  0
    1.3631   -2.8788    1.1186 H   0  0  0  0  0  0  0  0  0  0  0  0
    1.7819   -2.1051   -0.4230 H   0  0  0  0  0  0  0  0  0  0  0  0
    1.1403    1.3254    0.8780 H   0  0  0  0  0  0  0  0  0  0  0  0
    2.0264    0.6104    2.2397 H   0  0  0  0  0  0  0  0  0  0  0  0
    3.2708   -1.8500    2.2507 H   0  0  0  0  0  0  0  0  0  0  0  0
    3.7808   -2.7676    0.8195 H   0  0  0  0  0  0  0  0  0  0  0  0
    2.7545    0.4557   -0.7395 H   0  0  0  0  0  0  0  0  0  0  0  0
    3.5493    1.4318    0.5121 H   0  0  0  0  0  0  0  0  0  0  0  0
   -7.0191    1.3474   -2.2057 H   0  0  0  0  0  0  0  0  0  0  0  0
   -8.4100    2.2899   -1.6328 H   0  0  0  0  0  0  0  0  0  0  0  0
   -5.1403    0.2760    3.2174 H   0  0  0  0  0  0  0  0  0  0  0  0
   -4.6008    1.0472    1.6910 H   0  0  0  0  0  0  0  0  0  0  0  0
  -10.4863    0.7220   -0.1586 H   0  0  0  0  0  0  0  0  0  0  0  0
   -0.3988    0.7455    2.6935 H   0  0  0  0  0  0  0  0  0  0  0  0
   -0.6534   -2.4624   -0.2059 H   0  0  0  0  0  0  0  0  0  0  0  0
    5.7319   -1.9704    2.0610 H   0  0  0  0  0  0  0  0  0  0  0  0
    5.1524    0.7938   -1.2223 H   0  0  0  0  0  0  0  0  0  0  0  0
   -2.7854    0.6360    3.0294 H   0  0  0  0  0  0  0  0  0  0  0  0
   -3.0725   -2.5662    0.1425 H   0  0  0  0  0  0  0  0  0  0  0  0
    8.1066   -1.8786    1.7317 H   0  0  0  0  0  0  0  0  0  0  0  0
    7.4980    0.9208   -1.5536 H   0  0  0  0  0  0  0  0  0  0  0  0
   -8.7317   -3.3375   -2.4126 H   0  0  0  0  0  0  0  0  0  0  0  0
  -12.0366   -0.9657   -1.0005 H   0  0  0  0  0  0  0  0  0  0  0  0
   -4.6374    2.0526   -1.3589 H   0  0  0  0  0  0  0  0  0  0  0  0
   12.1234    1.2732   -2.3586 H   0  0  0  0  0  0  0  0  0  0  0  0
   14.2869    1.8285   -1.3047 H   0  0  0  0  0  0  0  0  0  0  0  0
   13.9549    0.7462    0.0446 H   0  0  0  0  0  0  0  0  0  0  0  0
   -5.9314    5.5320    0.5185 H   0  0  0  0  0  0  0  0  0  0  0  0
   10.1018   -1.7355    1.3876 H   0  0  0  0  0  0  0  0  0  0  0  0
   13.7334   -1.2234   -1.6012 H   0  0  0  0  0  0  0  0  0  0  0  0
   12.6096   -1.0886   -2.9592 H   0  0  0  0  0  0  0  0  0  0  0  0
   14.0871   -0.1119   -2.9346 H   0  0  0  0  0  0  0  0  0  0  0  0
   12.0332    2.1542    0.7514 H   0  0  0  0  0  0  0  0  0  0  0  0
   13.5012    3.1254    0.6052 H   0  0  0  0  0  0  0  0  0  0  0  0
   12.2670    3.2028   -0.6627 H   0  0  0  0  0  0  0  0  0  0  0  0
  1 27  1  0  0  0  0
  2 43  1  0  0  0  0
  3 15  1  0  0  0  0
  3 16  1  0  0  0  0
  4 15  1  0  0  0  0
  4 17  1  0  0  0  0
  5 24  1  0  0  0  0
  5 31  1  0  0  0  0
  6 44  2  0  0  0  0
  7 18  1  0  0  0  0
  7 19  1  0  0  0  0
  7 25  1  0  0  0  0
  8 20  1  0  0  0  0
  8 21  1  0  0  0  0
  8 26  1  0  0  0  0
  9 11  1  0  0  0  0
  9 22  1  0  0  0  0
  9 41  1  0  0  0  0
 10 36  1  0  0  0  0
 10 44  1  0  0  0  0
 10 47  1  0  0  0  0
 11 46  2  0  0  0  0
 12 14  1  0  0  0  0
 12 42  1  0  0  0  0
 12 44  1  0  0  0  0
 13 41  2  0  0  0  0
 13 46  1  0  0  0  0
 14 47  2  0  0  0  0
 15 22  1  0  0  0  0
 15 23  1  0  0  0  0
 16 17  1  0  0  0  0
 16 24  1  0  0  0  0
 16 50  1  0  0  0  0
 17 51  1  0  0  0  0
 17 52  1  0  0  0  0
 18 20  1  0  0  0  0
 18 53  1  0  0  0  0
 18 54  1  0  0  0  0
 19 21  1  0  0  0  0
 19 55  1  0  0  0  0
 19 56  1  0  0  0  0
 20 57  1  0  0  0  0
 20 58  1  0  0  0  0
 21 59  1  0  0  0  0
 21 60  1  0  0  0  0
 22 61  1  0  0  0  0
 22 62  1  0  0  0  0
 23 27  2  0  0  0  0
 23 28  1  0  0  0  0
 24 63  1  0  0  0  0
 24 64  1  0  0  0  0
 25 29  2  0  0  0  0
 25 30  1  0  0  0  0
 26 32  2  0  0  0  0
 26 33  1  0  0  0  0
 27 39  1  0  0  0  0
 28 40  2  0  0  0  0
 28 65  1  0  0  0  0
 29 34  1  0  0  0  0
 29 66  1  0  0  0  0
 30 35  2  0  0  0  0
 30 67  1  0  0  0  0
 31 34  2  0  0  0  0
 31 35  1  0  0  0  0
 32 37  1  0  0  0  0
 32 68  1  0  0  0  0
 33 38  2  0  0  0  0
 33 69  1  0  0  0  0
 34 70  1  0  0  0  0
 35 71  1  0  0  0  0
 36 37  2  0  0  0  0
 36 38  1  0  0  0  0
 37 72  1  0  0  0  0
 38 73  1  0  0  0  0
 39 43  2  0  0  0  0
 39 74  1  0  0  0  0
 40 43  1  0  0  0  0
 40 75  1  0  0  0  0
 41 76  1  0  0  0  0
 42 45  1  0  0  0  0
 42 48  1  0  0  0  0
 42 77  1  0  0  0  0
 45 49  1  0  0  0  0
 45 78  1  0  0  0  0
 45 79  1  0  0  0  0
 46 80  1  0  0  0  0
 47 81  1  0  0  0  0
 48 82  1  0  0  0  0
 48 83  1  0  0  0  0
 48 84  1  0  0  0  0
 49 85  1  0  0  0  0
 49 86  1  0  0  0  0
 49 87  1  0  0  0  0
M  END
> <DATABASE_ID>
DB01167

> <DATABASE_NAME>
drugbank

> <ORIGINAL_SOURCE>
PUBCHEM

> <ORIGINAL_SOURCE_URL>
https://pubchem.ncbi.nlm.nih.gov/rest/pug/compound/inchikey/VHVPQPYKVGDNFY-ZPGVKDDISA-N/SDF?record_type=3d

> <SMILES>
CCC(C)N1N=CN(C1=O)C1=CC=C(C=C1)N1CCN(CC1)C1=CC=C(OC[C@H]2CO[C@@](CN3C=NC=N3)(O2)C2=CC=C(Cl)C=C2Cl)C=C1

> <INCHI_IDENTIFIER>
InChI=1S/C35H38Cl2N8O4/c1-3-25(2)45-34(46)44(24-40-45)29-7-5-27(6-8-29)41-14-16-42(17-15-41)28-9-11-30(12-10-28)47-19-31-20-48-35(49-31,21-43-23-38-22-39-43)32-13-4-26(36)18-33(32)37/h4-13,18,22-25,31H,3,14-17,19-21H2,1-2H3/t25?,31-,35-/m0/s1

> <INCHI_KEY>
VHVPQPYKVGDNFY-ZPGVKDDISA-N

> <FORMULA>
C35H38Cl2N8O4

> <MOLECULAR_WEIGHT>
705.633

> <EXACT_MASS>
704.239307158

> <JCHEM_ACCEPTOR_COUNT>
9

> <JCHEM_ATOM_COUNT>
87

> <JCHEM_AVERAGE_POLARIZABILITY>
74.71436241108913

> <JCHEM_BIOAVAILABILITY>
0

> <JCHEM_DONOR_COUNT>
0

> <JCHEM_FORMAL_CHARGE>
0

> <JCHEM_GHOSE_FILTER>
0

> <JCHEM_IUPAC>
1-(butan-2-yl)-4-{4-[4-(4-{[(2R,4S)-2-(2,4-dichlorophenyl)-2-[(1H-1,2,4-triazol-1-yl)methyl]-1,3-dioxolan-4-yl]methoxy}phenyl)piperazin-1-yl]phenyl}-4,5-dihydro-1H-1,2,4-triazol-5-one

> <ALOGPS_LOGP>
5.48

> <JCHEM_LOGP>
7.311371119666667

> <ALOGPS_LOGS>
-4.86

> <JCHEM_MDDR_LIKE_RULE>
1

> <JCHEM_NUMBER_OF_RINGS>
7

> <JCHEM_PHYSIOLOGICAL_CHARGE>
0

> <JCHEM_PKA_STRONGEST_BASIC>
3.9140674819559207

> <JCHEM_POLAR_SURFACE_AREA>
100.79

> <JCHEM_REFRACTIVITY>
200.3999999999999

> <JCHEM_ROTATABLE_BOND_COUNT>
11

> <JCHEM_RULE_OF_FIVE>
0

> <ALOGPS_SOLUBILITY>
9.64e-03 g/l

> <JCHEM_TRADITIONAL_IUPAC>
itraconazole

> <JCHEM_VEBER_RULE>
0

$$$$
2749
  -OEChem-10051719313D

 32 33  0     0  0  0  0  0  0999 V2000
   -0.6120    2.3795   -0.0558 O   0  0  0  0  0  0  0  0  0  0  0  0
   -3.3029    1.8780    0.0356 O   0  0  0  0  0  0  0  0  0  0  0  0
   -1.1282    1.0753   -0.0079 N   0  0  0  0  0  0  0  0  0  0  0  0
    1.2497    0.3660    0.0063 C   0  0  0  0  0  0  0  0  0  0  0  0
    1.9277   -0.1784   -1.2592 C   0  0  0  0  0  0  0  0  0  0  0  0
    1.9293   -0.1847    1.2681 C   0  0  0  0  0  0  0  0  0  0  0  0
    3.4305    0.0949   -1.2569 C   0  0  0  0  0  0  0  0  0  0  0  0
    3.4321    0.0881    1.2650 C   0  0  0  0  0  0  0  0  0  0  0  0
    4.0989   -0.4474    0.0021 C   0  0  0  0  0  0  0  0  0  0  0  0
   -0.2150    0.0456    0.0061 C   0  0  0  0  0  0  0  0  0  0  0  0
   -0.6799   -1.2161    0.0031 C   0  0  0  0  0  0  0  0  0  0  0  0
   -2.1089   -1.4773   -0.0062 C   0  0  0  0  0  0  0  0  0  0  0  0
   -2.4982    0.9502    0.0205 C   0  0  0  0  0  0  0  0  0  0  0  0
   -2.9879   -0.4606    0.0025 C   0  0  0  0  0  0  0  0  0  0  0  0
   -2.5353   -2.9131   -0.0229 C   0  0  0  0  0  0  0  0  0  0  0  0
    1.4252    1.4479    0.0109 H   0  0  0  0  0  0  0  0  0  0  0  0
    1.4821    0.2801   -2.1511 H   0  0  0  0  0  0  0  0  0  0  0  0
    1.7761   -1.2612   -1.3530 H   0  0  0  0  0  0  0  0  0  0  0  0
    1.7777   -1.2680    1.3568 H   0  0  0  0  0  0  0  0  0  0  0  0
    1.4849    0.2694    2.1627 H   0  0  0  0  0  0  0  0  0  0  0  0
    3.6050    1.1757   -1.3269 H   0  0  0  0  0  0  0  0  0  0  0  0
    3.8888   -0.3596   -2.1425 H   0  0  0  0  0  0  0  0  0  0  0  0
    3.8917   -0.3713    2.1474 H   0  0  0  0  0  0  0  0  0  0  0  0
    3.6070    1.1684    1.3406 H   0  0  0  0  0  0  0  0  0  0  0  0
    4.0483   -1.5432   -0.0009 H   0  0  0  0  0  0  0  0  0  0  0  0
    5.1607   -0.1766    0.0021 H   0  0  0  0  0  0  0  0  0  0  0  0
   -0.0121   -2.0714    0.0069 H   0  0  0  0  0  0  0  0  0  0  0  0
   -4.0604   -0.6193   -0.0010 H   0  0  0  0  0  0  0  0  0  0  0  0
   -2.1586   -3.4374    0.8620 H   0  0  0  0  0  0  0  0  0  0  0  0
   -2.1516   -3.4186   -0.9157 H   0  0  0  0  0  0  0  0  0  0  0  0
   -3.6260   -3.0149   -0.0284 H   0  0  0  0  0  0  0  0  0  0  0  0
   -0.7458    2.6588    0.8662 H   0  0  0  0  0  0  0  0  0  0  0  0
  1  3  1  0  0  0  0
  1 32  1  0  0  0  0
  2 13  2  0  0  0  0
  3 10  1  0  0  0  0
  3 13  1  0  0  0  0
  4  5  1  0  0  0  0
  4  6  1  0  0  0  0
  4 10  1  0  0  0  0
  4 16  1  0  0  0  0
  5  7  1  0  0  0  0
  5 17  1  0  0  0  0
  5 18  1  0  0  0  0
  6  8  1  0  0  0  0
  6 19  1  0  0  0  0
  6 20  1  0  0  0  0
  7  9  1  0  0  0  0
  7 21  1  0  0  0  0
  7 22  1  0  0  0  0
  8  9  1  0  0  0  0
  8 23  1  0  0  0  0
  8 24  1  0  0  0  0
  9 25  1  0  0  0  0
  9 26  1  0  0  0  0
 10 11  2  0  0  0  0
 11 12  1  0  0  0  0
 11 27  1  0  0  0  0
 12 14  2  0  0  0  0
 12 15  1  0  0  0  0
 13 14  1  0  0  0  0
 14 28  1  0  0  0  0
 15 29  1  0  0  0  0
 15 30  1  0  0  0  0
 15 31  1  0  0  0  0
M  END
> <DATABASE_ID>
DB01188

> <DATABASE_NAME>
drugbank

> <ORIGINAL_SOURCE>
PUBCHEM

> <ORIGINAL_SOURCE_URL>
https://pubchem.ncbi.nlm.nih.gov/rest/pug/compound/inchikey/SCKYRAXSEDYPSA-UHFFFAOYSA-N/SDF?record_type=3d

> <SMILES>
CC1=CC(=O)N(O)C(=C1)C1CCCCC1

> <INCHI_IDENTIFIER>
InChI=1S/C12H17NO2/c1-9-7-11(13(15)12(14)8-9)10-5-3-2-4-6-10/h7-8,10,15H,2-6H2,1H3

> <INCHI_KEY>
SCKYRAXSEDYPSA-UHFFFAOYSA-N

> <FORMULA>
C12H17NO2

> <MOLECULAR_WEIGHT>
207.2689

> <EXACT_MASS>
207.125928793

> <JCHEM_ACCEPTOR_COUNT>
2

> <JCHEM_AVERAGE_POLARIZABILITY>
23.117942047063018

> <JCHEM_BIOAVAILABILITY>
1

> <JCHEM_DONOR_COUNT>
1

> <JCHEM_FORMAL_CHARGE>
0

> <JCHEM_GHOSE_FILTER>
1

> <JCHEM_IUPAC>
6-cyclohexyl-1-hydroxy-4-methyl-1,2-dihydropyridin-2-one

> <ALOGPS_LOGP>
2.15

> <JCHEM_LOGP>
2.216589469333334

> <ALOGPS_LOGS>
-2.17

> <JCHEM_MDDR_LIKE_RULE>
0

> <JCHEM_NUMBER_OF_RINGS>
2

> <JCHEM_PHYSIOLOGICAL_CHARGE>
-1

> <JCHEM_PKA_STRONGEST_ACIDIC>
6.842140564132407

> <JCHEM_PKA_STRONGEST_BASIC>
-6.194129902384247

> <JCHEM_POLAR_SURFACE_AREA>
40.54

> <JCHEM_REFRACTIVITY>
60.907399999999996

> <JCHEM_ROTATABLE_BOND_COUNT>
1

> <JCHEM_RULE_OF_FIVE>
1

> <ALOGPS_SOLUBILITY>
1.41e+00 g/l

> <JCHEM_TRADITIONAL_IUPAC>
penlac

> <JCHEM_VEBER_RULE>
0

$$$$
2722
  -OEChem-10051719323D

 18 19  0     0  0  0  0  0  0999 V2000
    0.1120   -3.3227   -0.0008 Cl  0  0  0  0  0  0  0  0  0  0  0  0
   -3.6847    0.4252   -0.0004 Cl  0  0  0  0  0  0  0  0  0  0  0  0
   -1.4152    2.3529   -0.0006 O   0  0  0  0  0  0  0  0  0  0  0  0
    1.2399    1.7282    0.0000 N   0  0  0  0  0  0  0  0  0  0  0  0
    0.7069   -0.6219    0.0001 C   0  0  0  0  0  0  0  0  0  0  0  0
    0.3285    0.7369    0.0001 C   0  0  0  0  0  0  0  0  0  0  0  0
   -1.0307    1.0383    0.0003 C   0  0  0  0  0  0  0  0  0  0  0  0
   -0.2713   -1.6309    0.0004 C   0  0  0  0  0  0  0  0  0  0  0  0
    2.0749   -0.9260    0.0001 C   0  0  0  0  0  0  0  0  0  0  0  0
   -2.0033    0.0355    0.0004 C   0  0  0  0  0  0  0  0  0  0  0  0
   -1.6234   -1.3009    0.0005 C   0  0  0  0  0  0  0  0  0  0  0  0
    3.0163    0.0932   -0.0001 C   0  0  0  0  0  0  0  0  0  0  0  0
    2.5502    1.3922    0.0000 C   0  0  0  0  0  0  0  0  0  0  0  0
    2.4432   -1.9479    0.0001 H   0  0  0  0  0  0  0  0  0  0  0  0
   -2.3806   -2.0820    0.0003 H   0  0  0  0  0  0  0  0  0  0  0  0
    4.0781   -0.1233   -0.0001 H   0  0  0  0  0  0  0  0  0  0  0  0
    3.2395    2.2302    0.0000 H   0  0  0  0  0  0  0  0  0  0  0  0
   -2.3874    2.3887   -0.0007 H   0  0  0  0  0  0  0  0  0  0  0  0
  1  8  1  0  0  0  0
  2 10  1  0  0  0  0
  3  7  1  0  0  0  0
  3 18  1  0  0  0  0
  4  6  1  0  0  0  0
  4 13  2  0  0  0  0
  5  6  2  0  0  0  0
  5  8  1  0  0  0  0
  5  9  1  0  0  0  0
  6  7  1  0  0  0  0
  7 10  2  0  0  0  0
  8 11  2  0  0  0  0
  9 12  2  0  0  0  0
  9 14  1  0  0  0  0
 10 11  1  0  0  0  0
 11 15  1  0  0  0  0
 12 13  1  0  0  0  0
 12 16  1  0  0  0  0
 13 17  1  0  0  0  0
M  END
> <DATABASE_ID>
DB01243

> <DATABASE_NAME>
drugbank

> <ORIGINAL_SOURCE>
PUBCHEM

> <ORIGINAL_SOURCE_URL>
https://pubchem.ncbi.nlm.nih.gov/rest/pug/compound/inchikey/WDFKMLRRRCGAKS-UHFFFAOYSA-N/SDF?record_type=3d

> <SMILES>
OC1=C(Cl)C=C(Cl)C2=C1N=CC=C2

> <INCHI_IDENTIFIER>
InChI=1S/C9H5Cl2NO/c10-6-4-7(11)9(13)8-5(6)2-1-3-12-8/h1-4,13H

> <INCHI_KEY>
WDFKMLRRRCGAKS-UHFFFAOYSA-N

> <FORMULA>
C9H5Cl2NO

> <MOLECULAR_WEIGHT>
214.048

> <EXACT_MASS>
212.974819201

> <JCHEM_ACCEPTOR_COUNT>
2

> <JCHEM_AVERAGE_POLARIZABILITY>
19.322074782592896

> <JCHEM_BIOAVAILABILITY>
1

> <JCHEM_DONOR_COUNT>
1

> <JCHEM_FORMAL_CHARGE>
0

> <JCHEM_GHOSE_FILTER>
0

> <JCHEM_IUPAC>
5,7-dichloroquinolin-8-ol

> <ALOGPS_LOGP>
3.44

> <JCHEM_LOGP>
3.035424502333333

> <ALOGPS_LOGS>
-3.19

> <JCHEM_MDDR_LIKE_RULE>
0

> <JCHEM_NUMBER_OF_RINGS>
2

> <JCHEM_PHYSIOLOGICAL_CHARGE>
-1

> <JCHEM_PKA_STRONGEST_ACIDIC>
6.954170972705197

> <JCHEM_PKA_STRONGEST_BASIC>
3.3963142832284525

> <JCHEM_POLAR_SURFACE_AREA>
33.120000000000005

> <JCHEM_REFRACTIVITY>
51.56980000000001

> <JCHEM_ROTATABLE_BOND_COUNT>
0

> <JCHEM_RULE_OF_FIVE>
1

> <ALOGPS_SOLUBILITY>
1.38e-01 g/l

> <JCHEM_TRADITIONAL_IUPAC>
chloroxine

> <JCHEM_VEBER_RULE>
1

$$$$

  Mrv1909 10181920262D          

 54 60  0  0  1  0            999 V2000
   13.4426    2.8311    0.0000 C   0  0  0  0  0  0  0  0  0  0  0  0
   14.0367    0.0356    0.0000 C   0  0  0  0  0  0  0  0  0  0  0  0
   13.9945    2.2180    0.0000 C   0  0  0  0  0  0  0  0  0  0  0  0
   -0.8236    5.1596    0.0000 C   0  0  0  0  0  0  0  0  0  0  0  0
    9.4303    1.5876    0.0000 C   0  0  0  0  0  0  0  0  0  0  0  0
   10.0115    2.8929    0.0000 C   0  0  0  0  0  0  0  0  0  0  0  0
   10.1840    1.2520    0.0000 C   0  0  0  0  0  0  0  0  0  0  0  0
   10.7652    2.5574    0.0000 C   0  0  0  0  0  0  0  0  0  0  0  0
    6.2431    4.5707    0.0000 C   0  0  0  0  0  0  0  0  0  0  0  0
    5.6620    3.2654    0.0000 C   0  0  0  0  0  0  0  0  0  0  0  0
    5.4895    4.9063    0.0000 C   0  0  0  0  0  0  0  0  0  0  0  0
    4.9083    3.6009    0.0000 C   0  0  0  0  0  0  0  0  0  0  0  0
   -0.1092    4.7472    0.0000 C   0  0  0  0  0  0  0  0  0  0  0  0
    8.5042    3.5641    0.0000 C   0  0  0  0  0  0  0  0  0  0  0  0
    7.9230    2.2587    0.0000 C   0  0  0  0  0  0  0  0  0  0  0  0
    7.7505    3.8996    0.0000 C   0  0  0  0  0  0  0  0  0  0  0  0
    7.1693    2.5943    0.0000 C   0  0  0  0  0  0  0  0  0  0  0  0
   -0.1092    6.3971    0.0000 C   0  0  0  0  0  0  0  0  0  0  0  0
    1.9328    4.1950    0.0000 C   0  0  0  0  0  0  0  0  0  0  0  0
    3.4009    4.2720    0.0000 C   0  0  0  0  0  0  0  0  0  0  0  0
    2.4757    5.4145    0.0000 C   0  0  0  0  0  0  0  0  0  0  0  0
    0.8347    4.0797    0.0000 C   0  0  0  0  0  0  0  0  0  0  0  0
    1.3099    1.9984    0.0000 C   0  0  0  0  0  0  0  0  0  0  0  0
    1.9773    3.1545    0.0000 C   0  0  0  0  0  0  0  0  0  0  0  0
   11.7766    0.5944    0.0000 C   0  0  0  0  0  0  0  0  0  0  0  0
   14.2917    0.8202    0.0000 C   0  0  1  0  0  0  0  0  0  0  0  0
    2.6473    4.6076    0.0000 C   0  0  2  0  0  0  0  0  0  0  0  0
   -0.8236    5.9846    0.0000 C   0  0  0  0  0  0  0  0  0  0  0  0
    9.3441    2.4080    0.0000 C   0  0  0  0  0  0  0  0  0  0  0  0
    6.3294    3.7502    0.0000 C   0  0  0  0  0  0  0  0  0  0  0  0
   10.8514    1.7369    0.0000 C   0  0  0  0  0  0  0  0  0  0  0  0
    4.8220    4.4213    0.0000 C   0  0  0  0  0  0  0  0  0  0  0  0
    0.6052    5.1596    0.0000 C   0  0  0  0  0  0  0  0  0  0  0  0
    0.6052    5.9846    0.0000 C   0  0  0  0  0  0  0  0  0  0  0  0
   13.7397    1.4334    0.0000 C   0  0  1  0  0  0  0  0  0  0  0  0
   12.3196    1.8139    0.0000 C   0  0  0  0  0  0  0  0  0  0  0  0
    1.3196    4.7472    0.0000 C   0  0  2  0  0  0  0  0  0  0  0  0
   -1.5381    6.3971    0.0000 F   0  0  0  0  0  0  0  0  0  0  0  0
    1.3196    6.3971    0.0000 F   0  0  0  0  0  0  0  0  0  0  0  0
    2.0635    2.3340    0.0000 N   0  0  0  0  0  0  0  0  0  0  0  0
    0.7578    2.6115    0.0000 N   0  0  0  0  0  0  0  0  0  0  0  0
   12.5971    0.5081    0.0000 N   0  0  0  0  0  0  0  0  0  0  0  0
    8.5904    2.7436    0.0000 N   0  0  0  0  0  0  0  0  0  0  0  0
    7.0830    3.4147    0.0000 N   0  0  0  0  0  0  0  0  0  0  0  0
    1.1703    3.3260    0.0000 N   0  0  0  0  0  0  0  0  0  0  0  0
   11.6051    1.4013    0.0000 N   0  0  0  0  0  0  0  0  0  0  0  0
   12.9326    1.2618    0.0000 N   0  0  0  0  0  0  0  0  0  0  0  0
   15.0986    0.9918    0.0000 O   0  0  0  0  0  0  0  0  0  0  0  0
   12.4058    2.6343    0.0000 O   0  0  0  0  0  0  0  0  0  0  0  0
    4.0683    4.7569    0.0000 O   0  0  0  0  0  0  0  0  0  0  0  0
    1.6552    5.5008    0.0000 O   0  0  0  0  0  0  0  0  0  0  0  0
   13.4847    0.6488    0.0000 H   0  0  0  0  0  0  0  0  0  0  0  0
    2.6904    3.7837    0.0000 H   0  0  0  0  0  0  0  0  0  0  0  0
   14.5466    1.6049    0.0000 H   0  0  0  0  0  0  0  0  0  0  0  0
  3  1  1  0  0  0  0
  7  5  1  0  0  0  0
  8  6  2  0  0  0  0
 11  9  1  0  0  0  0
 12 10  2  0  0  0  0
 13  4  2  0  0  0  0
 16 14  1  0  0  0  0
 17 15  1  0  0  0  0
 26  2  1  0  0  0  0
 27 19  1  0  0  0  0
 27 20  1  1  0  0  0
 27 21  1  0  0  0  0
 28  4  1  0  0  0  0
 28 18  2  0  0  0  0
 29  5  2  0  0  0  0
 29  6  1  0  0  0  0
 30  9  2  0  0  0  0
 30 10  1  0  0  0  0
 31  7  2  0  0  0  0
 31  8  1  0  0  0  0
 32 11  2  0  0  0  0
 32 12  1  0  0  0  0
 33 13  1  0  0  0  0
 34 18  1  0  0  0  0
 34 33  2  0  0  0  0
 35  3  1  0  0  0  0
 35 26  1  0  0  0  0
 37 19  1  0  0  0  0
 37 22  1  1  0  0  0
 37 33  1  6  0  0  0
 38 28  1  0  0  0  0
 39 34  1  0  0  0  0
 40 23  1  0  0  0  0
 40 24  2  0  0  0  0
 41 23  2  0  0  0  0
 42 25  2  0  0  0  0
 43 14  1  0  0  0  0
 43 15  1  0  0  0  0
 43 29  1  0  0  0  0
 44 16  1  0  0  0  0
 44 17  1  0  0  0  0
 44 30  1  0  0  0  0
 45 22  1  0  0  0  0
 45 24  1  0  0  0  0
 45 41  1  0  0  0  0
 46 25  1  0  0  0  0
 46 31  1  0  0  0  0
 46 36  1  0  0  0  0
 35 47  1  6  0  0  0
 47 36  1  0  0  0  0
 47 42  1  0  0  0  0
 26 48  1  6  0  0  0
 49 36  2  0  0  0  0
 50 20  1  0  0  0  0
 50 32  1  0  0  0  0
 51 21  1  0  0  0  0
 51 37  1  0  0  0  0
 26 52  1  6  0  0  0
 27 53  1  6  0  0  0
 35 54  1  6  0  0  0
M  END
> <DATABASE_ID>
DB01263

> <DATABASE_NAME>
drugbank

> <SMILES>
[H][C@@](C)(O)[C@]([H])(CC)N1N=CN(C1=O)C1=CC=C(C=C1)N1CCN(CC1)C1=CC=C(OC[C@]2([H])CO[C@](CN3C=NC=N3)(C2)C2=C(F)C=C(F)C=C2)C=C1

> <INCHI_IDENTIFIER>
InChI=1S/C37H42F2N8O4/c1-3-35(26(2)48)47-36(49)46(25-42-47)31-7-5-29(6-8-31)43-14-16-44(17-15-43)30-9-11-32(12-10-30)50-20-27-19-37(51-21-27,22-45-24-40-23-41-45)33-13-4-28(38)18-34(33)39/h4-13,18,23-27,35,48H,3,14-17,19-22H2,1-2H3/t26-,27+,35-,37-/m0/s1

> <INCHI_KEY>
RAGOYPUPXAKGKH-XAKZXMRKSA-N

> <FORMULA>
C37H42F2N8O4

> <MOLECULAR_WEIGHT>
700.7774

> <EXACT_MASS>
700.329708282

> <JCHEM_ACCEPTOR_COUNT>
9

> <JCHEM_ATOM_COUNT>
93

> <JCHEM_AVERAGE_POLARIZABILITY>
73.83042930723754

> <JCHEM_BIOAVAILABILITY>
0

> <JCHEM_DONOR_COUNT>
1

> <JCHEM_FORMAL_CHARGE>
0

> <JCHEM_GHOSE_FILTER>
0

> <JCHEM_IUPAC>
4-{4-[4-(4-{[(3R,5R)-5-(2,4-difluorophenyl)-5-[(1H-1,2,4-triazol-1-yl)methyl]oxolan-3-yl]methoxy}phenyl)piperazin-1-yl]phenyl}-1-[(2S,3S)-2-hydroxypentan-3-yl]-4,5-dihydro-1H-1,2,4-triazol-5-one

> <ALOGPS_LOGP>
4.71

> <JCHEM_LOGP>
5.406185238

> <ALOGPS_LOGS>
-4.77

> <JCHEM_MDDR_LIKE_RULE>
1

> <JCHEM_NUMBER_OF_RINGS>
7

> <JCHEM_PHYSIOLOGICAL_CHARGE>
0

> <JCHEM_PKA_STRONGEST_ACIDIC>
14.826501017537103

> <JCHEM_PKA_STRONGEST_BASIC>
3.9255232532955855

> <JCHEM_POLAR_SURFACE_AREA>
111.79000000000002

> <JCHEM_REFRACTIVITY>
200.70579999999995

> <JCHEM_ROTATABLE_BOND_COUNT>
12

> <JCHEM_RULE_OF_FIVE>
0

> <ALOGPS_SOLUBILITY>
1.20e-02 g/l

> <JCHEM_TRADITIONAL_IUPAC>
posaconazole

> <JCHEM_VEBER_RULE>
0

> <DRUGBANK_ID>
DB01263

> <DRUG_GROUPS>
approved; investigational; vet_approved

> <GENERIC_NAME>
Posaconazole

> <SYNONYMS>
Posaconazole

> <PRODUCTS>
Noxafil; Posaconazole; Posaconazole Sp; Posanol; Sandoz Posaconazole

$$$$
19910
  -OEChem-10051719353D

 20 21  0     0  0  0  0  0  0999 V2000
    2.5229    2.1997    0.0005 O   0  0  0  0  0  0  0  0  0  0  0  0
   -3.4820    0.5549    0.0011 O   0  5  0  0  0  0  0  0  0  0  0  0
   -2.5989   -1.4596   -0.0006 O   0  0  0  0  0  0  0  0  0  0  0  0
    2.3816   -0.5497    0.0001 N   0  0  0  0  0  0  0  0  0  0  0  0
   -2.4937   -0.2126    0.0003 N   0  3  0  0  0  0  0  0  0  0  0  0
   -0.0253   -0.4298   -0.0003 C   0  0  0  0  0  0  0  0  0  0  0  0
    1.2481    0.1770   -0.0001 C   0  0  0  0  0  0  0  0  0  0  0  0
   -1.1877    0.3598   -0.0006 C   0  0  0  0  0  0  0  0  0  0  0  0
    1.3107    1.5678   -0.0001 C   0  0  0  0  0  0  0  0  0  0  0  0
   -1.0958    1.7487   -0.0005 C   0  0  0  0  0  0  0  0  0  0  0  0
   -0.0889   -1.8298    0.0000 C   0  0  0  0  0  0  0  0  0  0  0  0
    0.1552    2.3530   -0.0001 C   0  0  0  0  0  0  0  0  0  0  0  0
    1.0773   -2.5813    0.0002 C   0  0  0  0  0  0  0  0  0  0  0  0
    2.2766   -1.8983    0.0002 C   0  0  0  0  0  0  0  0  0  0  0  0
   -1.9678    2.3970   -0.0005 H   0  0  0  0  0  0  0  0  0  0  0  0
   -0.9434   -2.4825    0.0001 H   0  0  0  0  0  0  0  0  0  0  0  0
    0.2297    3.4372    0.0001 H   0  0  0  0  0  0  0  0  0  0  0  0
    1.0509   -3.6650    0.0005 H   0  0  0  0  0  0  0  0  0  0  0  0
    3.2209   -2.4328    0.0004 H   0  0  0  0  0  0  0  0  0  0  0  0
    3.2210    1.5220    0.0006 H   0  0  0  0  0  0  0  0  0  0  0  0
  1  9  1  0  0  0  0
  1 20  1  0  0  0  0
  2  5  1  0  0  0  0
  3  5  2  0  0  0  0
  4  7  1  0  0  0  0
  4 14  2  0  0  0  0
  5  8  1  0  0  0  0
  6  7  1  0  0  0  0
  6  8  2  0  0  0  0
  6 11  1  0  0  0  0
  7  9  2  0  0  0  0
  8 10  1  0  0  0  0
  9 12  1  0  0  0  0
 10 12  2  0  0  0  0
 10 15  1  0  0  0  0
 11 13  2  0  0  0  0
 11 16  1  0  0  0  0
 12 17  1  0  0  0  0
 13 14  1  0  0  0  0
 13 18  1  0  0  0  0
 14 19  1  0  0  0  0
M  CHG  2   2  -1   5   1
M  END
> <DATABASE_ID>
DB01422

> <DATABASE_NAME>
drugbank

> <ORIGINAL_SOURCE>
PUBCHEM

> <ORIGINAL_SOURCE_URL>
https://pubchem.ncbi.nlm.nih.gov/rest/pug/compound/inchikey/RJIWZDNTCBHXAL-UHFFFAOYSA-N/SDF?record_type=3d

> <SMILES>
OC1=C2N=CC=CC2=C(C=C1)[N+]([O-])=O

> <INCHI_IDENTIFIER>
InChI=1S/C9H6N2O3/c12-8-4-3-7(11(13)14)6-2-1-5-10-9(6)8/h1-5,12H

> <INCHI_KEY>
RJIWZDNTCBHXAL-UHFFFAOYSA-N

> <FORMULA>
C9H6N2O3

> <MOLECULAR_WEIGHT>
190.1555

> <EXACT_MASS>
190.037842068

> <JCHEM_ACCEPTOR_COUNT>
4

> <JCHEM_AVERAGE_POLARIZABILITY>
17.163202295729285

> <JCHEM_BIOAVAILABILITY>
1

> <JCHEM_DONOR_COUNT>
1

> <JCHEM_FORMAL_CHARGE>
0

> <JCHEM_GHOSE_FILTER>
1

> <JCHEM_IUPAC>
5-nitroquinolin-8-ol

> <ALOGPS_LOGP>
1.90

> <JCHEM_LOGP>
1.767319339

> <ALOGPS_LOGS>
-1.84

> <JCHEM_MDDR_LIKE_RULE>
0

> <JCHEM_NUMBER_OF_RINGS>
2

> <JCHEM_PHYSIOLOGICAL_CHARGE>
-1

> <JCHEM_PKA_STRONGEST_ACIDIC>
6.8755887406986

> <JCHEM_PKA_STRONGEST_BASIC>
2.08166459790019

> <JCHEM_POLAR_SURFACE_AREA>
78.94

> <JCHEM_REFRACTIVITY>
49.284900000000015

> <JCHEM_ROTATABLE_BOND_COUNT>
1

> <JCHEM_RULE_OF_FIVE>
1

> <ALOGPS_SOLUBILITY>
2.73e+00 g/l

> <JCHEM_TRADITIONAL_IUPAC>
nitroxoline

> <JCHEM_VEBER_RULE>
0

$$$$
65482
  -OEChem-10051719443D

 50 52  0     1  0  0  0  0  0999 V2000
   -0.4428    1.4785   -0.8664 O   0  0  0  0  0  0  0  0  0  0  0  0
   -1.0716    3.8088    1.7951 O   0  0  0  0  0  0  0  0  0  0  0  0
   -2.6028    3.8158   -0.4605 O   0  0  0  0  0  0  0  0  0  0  0  0
    3.9919   -0.8637   -1.9643 O   0  0  0  0  0  0  0  0  0  0  0  0
    5.2024   -2.3453   -0.7485 O   0  0  0  0  0  0  0  0  0  0  0  0
   -2.4613    0.2301   -0.8257 N   0  0  0  0  0  0  0  0  0  0  0  0
    2.7282    3.0169   -0.8362 N   0  0  0  0  0  0  0  0  0  0  0  0
   -3.8675   -1.4723   -1.1456 N   0  0  0  0  0  0  0  0  0  0  0  0
   -0.8975   -0.8085    0.7164 N   0  0  0  0  0  0  0  0  0  0  0  0
    3.0033   -2.5728    0.9763 N   0  0  0  0  0  0  0  0  0  0  0  0
   -1.5261   -3.1168    1.1983 N   0  0  0  0  0  0  0  0  0  0  0  0
   -3.4547   -4.1520    0.2306 N   0  0  0  0  0  0  0  0  0  0  0  0
    0.0124    2.4230    0.1162 C   0  0  1  0  0  0  0  0  0  0  0  0
   -1.1570    2.6015    1.0689 C   0  0  2  0  0  0  0  0  0  0  0  0
   -2.3483    2.5429    0.1313 C   0  0  2  0  0  0  0  0  0  0  0  0
   -1.8812    1.5682   -0.9511 C   0  0  1  0  0  0  0  0  0  0  0  0
    1.2677    1.8989    0.7903 C   0  0  0  0  0  0  0  0  0  0  0  0
    2.4585    1.7374   -0.1715 C   0  0  2  0  0  0  0  0  0  0  0  0
    3.7563    1.2023    0.4691 C   0  0  0  0  0  0  0  0  0  0  0  0
    3.6294   -0.1612    1.1704 C   0  0  0  0  0  0  0  0  0  0  0  0
   -1.9863   -0.8032   -0.0672 C   0  0  0  0  0  0  0  0  0  0  0  0
   -3.5930   -0.2219   -1.4537 C   0  0  0  0  0  0  0  0  0  0  0  0
    3.2216   -1.3231    0.2485 C   0  0  1  0  0  0  0  0  0  0  0  0
   -2.8713   -1.8481   -0.2799 C   0  0  0  0  0  0  0  0  0  0  0  0
   -2.6100   -3.0397    0.3890 C   0  0  0  0  0  0  0  0  0  0  0  0
    4.2483   -1.5833   -0.8400 C   0  0  0  0  0  0  0  0  0  0  0  0
   -0.7488   -2.0127    1.3101 C   0  0  0  0  0  0  0  0  0  0  0  0
    0.2164    3.3731   -0.3930 H   0  0  0  0  0  0  0  0  0  0  0  0
   -1.2039    1.7664    1.7776 H   0  0  0  0  0  0  0  0  0  0  0  0
   -3.2646    2.2386    0.6474 H   0  0  0  0  0  0  0  0  0  0  0  0
   -2.1257    1.9192   -1.9607 H   0  0  0  0  0  0  0  0  0  0  0  0
    1.0511    0.9253    1.2412 H   0  0  0  0  0  0  0  0  0  0  0  0
    1.5513    2.5720    1.6096 H   0  0  0  0  0  0  0  0  0  0  0  0
    2.1605    1.0419   -0.9638 H   0  0  0  0  0  0  0  0  0  0  0  0
    4.5502    1.1488   -0.2862 H   0  0  0  0  0  0  0  0  0  0  0  0
    4.1052    1.9269    1.2176 H   0  0  0  0  0  0  0  0  0  0  0  0
   -1.9006    3.9082    2.2935 H   0  0  0  0  0  0  0  0  0  0  0  0
    4.6023   -0.3924    1.6250 H   0  0  0  0  0  0  0  0  0  0  0  0
    2.9198   -0.0789    2.0024 H   0  0  0  0  0  0  0  0  0  0  0  0
   -3.3468    3.7053   -1.0770 H   0  0  0  0  0  0  0  0  0  0  0  0
    3.5120    2.9114   -1.4793 H   0  0  0  0  0  0  0  0  0  0  0  0
    3.0217    3.7064   -0.1449 H   0  0  0  0  0  0  0  0  0  0  0  0
   -4.1727    0.4031   -2.1192 H   0  0  0  0  0  0  0  0  0  0  0  0
    2.2675   -1.0893   -0.2373 H   0  0  0  0  0  0  0  0  0  0  0  0
    2.3387   -2.4196    1.7326 H   0  0  0  0  0  0  0  0  0  0  0  0
    2.5808   -3.2631    0.3566 H   0  0  0  0  0  0  0  0  0  0  0  0
    0.1006   -2.1057    1.9769 H   0  0  0  0  0  0  0  0  0  0  0  0
   -3.2430   -5.0071    0.7265 H   0  0  0  0  0  0  0  0  0  0  0  0
   -4.2635   -4.0972   -0.3736 H   0  0  0  0  0  0  0  0  0  0  0  0
    4.6565   -1.0326   -2.6657 H   0  0  0  0  0  0  0  0  0  0  0  0
  1 13  1  0  0  0  0
  1 16  1  0  0  0  0
  2 14  1  0  0  0  0
  2 37  1  0  0  0  0
  3 15  1  0  0  0  0
  3 40  1  0  0  0  0
  4 26  1  0  0  0  0
  4 50  1  0  0  0  0
  5 26  2  0  0  0  0
  6 16  1  0  0  0  0
  6 21  1  0  0  0  0
  6 22  1  0  0  0  0
  7 18  1  0  0  0  0
  7 41  1  0  0  0  0
  7 42  1  0  0  0  0
  8 22  2  0  0  0  0
  8 24  1  0  0  0  0
  9 21  2  0  0  0  0
  9 27  1  0  0  0  0
 10 23  1  0  0  0  0
 10 45  1  0  0  0  0
 10 46  1  0  0  0  0
 11 25  1  0  0  0  0
 11 27  2  0  0  0  0
 12 25  1  0  0  0  0
 12 48  1  0  0  0  0
 12 49  1  0  0  0  0
 13 14  1  0  0  0  0
 13 17  1  0  0  0  0
 13 28  1  0  0  0  0
 14 15  1  0  0  0  0
 14 29  1  0  0  0  0
 15 16  1  0  0  0  0
 15 30  1  0  0  0  0
 16 31  1  0  0  0  0
 17 18  1  0  0  0  0
 17 32  1  0  0  0  0
 17 33  1  0  0  0  0
 18 19  1  0  0  0  0
 18 34  1  0  0  0  0
 19 20  1  0  0  0  0
 19 35  1  0  0  0  0
 19 36  1  0  0  0  0
 20 23  1  0  0  0  0
 20 38  1  0  0  0  0
 20 39  1  0  0  0  0
 21 24  1  0  0  0  0
 22 43  1  0  0  0  0
 23 26  1  0  0  0  0
 23 44  1  0  0  0  0
 24 25  2  0  0  0  0
 27 47  1  0  0  0  0
M  END
> <DATABASE_ID>
DB01910

> <DATABASE_NAME>
drugbank

> <ORIGINAL_SOURCE>
PUBCHEM

> <ORIGINAL_SOURCE_URL>
https://pubchem.ncbi.nlm.nih.gov/rest/pug/compound/inchikey/LMXOHSDXUQEUSF-YECHIGJVSA-N/SDF?record_type=3d

> <SMILES>
[H][C@](N)(CC[C@]([H])(N)C(O)=O)C[C@@]1([H])O[C@@]([H])(N2C=NC3=C(N)N=CN=C23)[C@]([H])(O)[C@]1([H])O

> <INCHI_IDENTIFIER>
InChI=1S/C15H23N7O5/c16-6(1-2-7(17)15(25)26)3-8-10(23)11(24)14(27-8)22-5-21-9-12(18)19-4-20-13(9)22/h4-8,10-11,14,23-24H,1-3,16-17H2,(H,25,26)(H2,18,19,20)/t6-,7-,8+,10+,11+,14+/m0/s1

> <INCHI_KEY>
LMXOHSDXUQEUSF-YECHIGJVSA-N

> <FORMULA>
C15H23N7O5

> <MOLECULAR_WEIGHT>
381.387

> <EXACT_MASS>
381.176066881

> <JCHEM_ACCEPTOR_COUNT>
11

> <JCHEM_AVERAGE_POLARIZABILITY>
37.68650181215635

> <JCHEM_BIOAVAILABILITY>
0

> <JCHEM_DONOR_COUNT>
6

> <JCHEM_FORMAL_CHARGE>
0

> <JCHEM_GHOSE_FILTER>
0

> <JCHEM_IUPAC>
(2S,5S)-2,5-diamino-6-[(2R,3S,4R,5R)-5-(6-amino-9H-purin-9-yl)-3,4-dihydroxyoxolan-2-yl]hexanoic acid

> <ALOGPS_LOGP>
-3.05

> <JCHEM_LOGP>
-5.138679707504106

> <ALOGPS_LOGS>
-1.92

> <JCHEM_MDDR_LIKE_RULE>
1

> <JCHEM_NUMBER_OF_RINGS>
3

> <JCHEM_PHYSIOLOGICAL_CHARGE>
1

> <JCHEM_PKA>
12.48129078946981

> <JCHEM_PKA_STRONGEST_ACIDIC>
1.9480808652263852

> <JCHEM_PKA_STRONGEST_BASIC>
10.180208209426675

> <JCHEM_POLAR_SURFACE_AREA>
208.64999999999995

> <JCHEM_REFRACTIVITY>
92.67839999999998

> <JCHEM_ROTATABLE_BOND_COUNT>
7

> <JCHEM_RULE_OF_FIVE>
0

> <ALOGPS_SOLUBILITY>
4.63e+00 g/l

> <JCHEM_TRADITIONAL_IUPAC>
sinefungin

> <JCHEM_VEBER_RULE>
0

$$$$
6989
  -OEChem-10051719563D

 25 25  0     0  0  0  0  0  0999 V2000
   -0.4292    2.3458    0.0002 O   0  0  0  0  0  0  0  0  0  0  0  0
   -2.1355    0.0547    0.0000 C   0  0  0  0  0  0  0  0  0  0  0  0
   -0.6457   -0.0413    0.0000 C   0  0  0  0  0  0  0  0  0  0  0  0
   -2.7641   -0.5675    1.2605 C   0  0  0  0  0  0  0  0  0  0  0  0
   -2.7643   -0.5674   -1.2605 C   0  0  0  0  0  0  0  0  0  0  0  0
    0.1430    1.1093   -0.0001 C   0  0  0  0  0  0  0  0  0  0  0  0
   -0.0435   -1.2995    0.0000 C   0  0  0  0  0  0  0  0  0  0  0  0
    2.1358   -0.2566    0.0000 C   0  0  0  0  0  0  0  0  0  0  0  0
    1.5336    1.0016    0.0000 C   0  0  0  0  0  0  0  0  0  0  0  0
    1.3473   -1.4072    0.0000 C   0  0  0  0  0  0  0  0  0  0  0  0
    3.6226   -0.3719   -0.0001 C   0  0  0  0  0  0  0  0  0  0  0  0
   -2.4660    1.0979    0.0133 H   0  0  0  0  0  0  0  0  0  0  0  0
   -2.5940   -1.6482    1.3137 H   0  0  0  0  0  0  0  0  0  0  0  0
   -3.8469   -0.4017    1.2722 H   0  0  0  0  0  0  0  0  0  0  0  0
   -2.3455   -0.1167    2.1671 H   0  0  0  0  0  0  0  0  0  0  0  0
   -2.3483   -0.1132   -2.1667 H   0  0  0  0  0  0  0  0  0  0  0  0
   -3.8475   -0.4038   -1.2701 H   0  0  0  0  0  0  0  0  0  0  0  0
   -2.5917   -1.6475   -1.3159 H   0  0  0  0  0  0  0  0  0  0  0  0
   -0.6363   -2.2100    0.0005 H   0  0  0  0  0  0  0  0  0  0  0  0
    2.1434    1.9020    0.0017 H   0  0  0  0  0  0  0  0  0  0  0  0
    1.8047   -2.3930    0.0019 H   0  0  0  0  0  0  0  0  0  0  0  0
    4.0835    0.4669   -0.5326 H   0  0  0  0  0  0  0  0  0  0  0  0
    3.9984   -0.3845    1.0278 H   0  0  0  0  0  0  0  0  0  0  0  0
    3.9485   -1.2884   -0.5038 H   0  0  0  0  0  0  0  0  0  0  0  0
   -1.1636    2.3514   -0.6359 H   0  0  0  0  0  0  0  0  0  0  0  0
  1  6  1  0  0  0  0
  1 25  1  0  0  0  0
  2  3  1  0  0  0  0
  2  4  1  0  0  0  0
  2  5  1  0  0  0  0
  2 12  1  0  0  0  0
  3  6  2  0  0  0  0
  3  7  1  0  0  0  0
  4 13  1  0  0  0  0
  4 14  1  0  0  0  0
  4 15  1  0  0  0  0
  5 16  1  0  0  0  0
  5 17  1  0  0  0  0
  5 18  1  0  0  0  0
  6  9  1  0  0  0  0
  7 10  2  0  0  0  0
  7 19  1  0  0  0  0
  8  9  2  0  0  0  0
  8 10  1  0  0  0  0
  8 11  1  0  0  0  0
  9 20  1  0  0  0  0
 10 21  1  0  0  0  0
 11 22  1  0  0  0  0
 11 23  1  0  0  0  0
 11 24  1  0  0  0  0
M  END
> <DATABASE_ID>
DB02513

> <DATABASE_NAME>
drugbank

> <ORIGINAL_SOURCE>
PUBCHEM

> <ORIGINAL_SOURCE_URL>
https://pubchem.ncbi.nlm.nih.gov/rest/pug/compound/inchikey/MGSRCZKZVOBKFT-UHFFFAOYSA-N/SDF?record_type=3d

> <SMILES>
CC(C)C1=C(O)C=C(C)C=C1

> <INCHI_IDENTIFIER>
InChI=1S/C10H14O/c1-7(2)9-5-4-8(3)6-10(9)11/h4-7,11H,1-3H3

> <INCHI_KEY>
MGSRCZKZVOBKFT-UHFFFAOYSA-N

> <FORMULA>
C10H14O

> <MOLECULAR_WEIGHT>
150.221

> <EXACT_MASS>
150.104465071

> <JCHEM_ACCEPTOR_COUNT>
1

> <JCHEM_ATOM_COUNT>
25

> <JCHEM_AVERAGE_POLARIZABILITY>
17.841403772475083

> <JCHEM_BIOAVAILABILITY>
1

> <JCHEM_DONOR_COUNT>
1

> <JCHEM_FORMAL_CHARGE>
0

> <JCHEM_GHOSE_FILTER>
0

> <JCHEM_IUPAC>
5-methyl-2-(propan-2-yl)phenol

> <ALOGPS_LOGP>
3.16

> <JCHEM_LOGP>
3.428111034333333

> <ALOGPS_LOGS>
-2.37

> <JCHEM_MDDR_LIKE_RULE>
0

> <JCHEM_NUMBER_OF_RINGS>
1

> <JCHEM_PHYSIOLOGICAL_CHARGE>
0

> <JCHEM_PKA_STRONGEST_ACIDIC>
10.592932954134925

> <JCHEM_PKA_STRONGEST_BASIC>
-5.231344648281415

> <JCHEM_POLAR_SURFACE_AREA>
20.23

> <JCHEM_REFRACTIVITY>
47.270900000000005

> <JCHEM_ROTATABLE_BOND_COUNT>
1

> <JCHEM_RULE_OF_FIVE>
1

> <ALOGPS_SOLUBILITY>
6.43e-01 g/l

> <JCHEM_TRADITIONAL_IUPAC>
thymol

> <JCHEM_VEBER_RULE>
1

$$$$
91665
  -OEChem-10051720013D

 24 26  0     0  0  0  0  0  0999 V2000
   -3.2974    0.3615   -0.0928 O   0  0  0  0  0  0  0  0  0  0  0  0
   -1.0104    0.6540   -0.0181 N   0  0  0  0  0  0  0  0  0  0  0  0
    0.2608    0.0971    0.0019 C   0  0  0  0  0  0  0  0  0  0  0  0
   -0.8832    2.1134   -0.1208 C   0  0  0  0  0  0  0  0  0  0  0  0
    0.6182    2.4355    0.0689 C   0  0  0  0  0  0  0  0  0  0  0  0
    1.2421    1.0750    0.0369 C   0  0  0  0  0  0  0  0  0  0  0  0
    0.5167   -1.2579   -0.0490 C   0  0  0  0  0  0  0  0  0  0  0  0
   -0.6459   -2.1848   -0.2172 C   0  0  0  0  0  0  0  0  0  0  0  0
   -1.9373   -1.5780    0.3502 C   0  0  0  0  0  0  0  0  0  0  0  0
   -2.1624   -0.0997    0.0209 C   0  0  0  0  0  0  0  0  0  0  0  0
    2.5704    0.6992    0.0555 C   0  0  0  0  0  0  0  0  0  0  0  0
    1.8551   -1.6446   -0.0495 C   0  0  0  0  0  0  0  0  0  0  0  0
    2.8732   -0.6707    0.0132 C   0  0  0  0  0  0  0  0  0  0  0  0
   -1.5161    2.5951    0.6316 H   0  0  0  0  0  0  0  0  0  0  0  0
   -1.2396    2.4158   -1.1122 H   0  0  0  0  0  0  0  0  0  0  0  0
    0.7926    2.9133    1.0382 H   0  0  0  0  0  0  0  0  0  0  0  0
    0.9889    3.0792   -0.7339 H   0  0  0  0  0  0  0  0  0  0  0  0
   -0.7759   -2.3801   -1.2887 H   0  0  0  0  0  0  0  0  0  0  0  0
   -0.4478   -3.1422    0.2777 H   0  0  0  0  0  0  0  0  0  0  0  0
   -1.9248   -1.6528    1.4453 H   0  0  0  0  0  0  0  0  0  0  0  0
   -2.7976   -2.1529   -0.0100 H   0  0  0  0  0  0  0  0  0  0  0  0
    3.3641    1.4373    0.0948 H   0  0  0  0  0  0  0  0  0  0  0  0
    2.1252   -2.6954   -0.1095 H   0  0  0  0  0  0  0  0  0  0  0  0
    3.9131   -0.9881    0.0162 H   0  0  0  0  0  0  0  0  0  0  0  0
  1 10  2  0  0  0  0
  2  3  1  0  0  0  0
  2  4  1  0  0  0  0
  2 10  1  0  0  0  0
  3  6  1  0  0  0  0
  3  7  2  0  0  0  0
  4  5  1  0  0  0  0
  4 14  1  0  0  0  0
  4 15  1  0  0  0  0
  5  6  1  0  0  0  0
  5 16  1  0  0  0  0
  5 17  1  0  0  0  0
  6 11  2  0  0  0  0
  7  8  1  0  0  0  0
  7 12  1  0  0  0  0
  8  9  1  0  0  0  0
  8 18  1  0  0  0  0
  8 19  1  0  0  0  0
  9 10  1  0  0  0  0
  9 20  1  0  0  0  0
  9 21  1  0  0  0  0
 11 13  1  0  0  0  0
 11 22  1  0  0  0  0
 12 13  2  0  0  0  0
 12 23  1  0  0  0  0
 13 24  1  0  0  0  0
M  END
> <DATABASE_ID>
DB02756

> <DATABASE_NAME>
drugbank

> <ORIGINAL_SOURCE>
PUBCHEM

> <ORIGINAL_SOURCE_URL>
https://pubchem.ncbi.nlm.nih.gov/rest/pug/compound/inchikey/XRJLAOUDSILTFT-UHFFFAOYSA-N/SDF?record_type=3d

> <SMILES>
O=C1CCC2=CC=CC3=C2N1CC3

> <INCHI_IDENTIFIER>
InChI=1S/C11H11NO/c13-10-5-4-8-2-1-3-9-6-7-12(10)11(8)9/h1-3H,4-7H2

> <INCHI_KEY>
XRJLAOUDSILTFT-UHFFFAOYSA-N

> <FORMULA>
C11H11NO

> <MOLECULAR_WEIGHT>
173.2111

> <EXACT_MASS>
173.084063979

> <JCHEM_ACCEPTOR_COUNT>
1

> <JCHEM_AVERAGE_POLARIZABILITY>
18.78977771088972

> <JCHEM_BIOAVAILABILITY>
1

> <JCHEM_DONOR_COUNT>
0

> <JCHEM_FORMAL_CHARGE>
0

> <JCHEM_GHOSE_FILTER>
1

> <JCHEM_IUPAC>
1-azatricyclo[6.3.1.0⁴,¹²]dodeca-4(12),5,7-trien-11-one

> <ALOGPS_LOGP>
1.10

> <JCHEM_LOGP>
1.4205734269999997

> <ALOGPS_LOGS>
-1.19

> <JCHEM_MDDR_LIKE_RULE>
0

> <JCHEM_NUMBER_OF_RINGS>
3

> <JCHEM_PHYSIOLOGICAL_CHARGE>
0

> <JCHEM_PKA_STRONGEST_BASIC>
-3.4964955335292154

> <JCHEM_POLAR_SURFACE_AREA>
20.310000000000002

> <JCHEM_REFRACTIVITY>
50.61140000000001

> <JCHEM_ROTATABLE_BOND_COUNT>
0

> <JCHEM_RULE_OF_FIVE>
1

> <ALOGPS_SOLUBILITY>
1.13e+01 g/l

> <JCHEM_TRADITIONAL_IUPAC>
pyroquilon

> <JCHEM_VEBER_RULE>
1

$$$$
2969
  -OEChem-10051720183D

 32 31  0     0  0  0  0  0  0999 V2000
   -5.7761    0.7175   -0.0524 O   0  0  0  0  0  0  0  0  0  0  0  0
   -4.8040   -1.3327    0.0216 O   0  0  0  0  0  0  0  0  0  0  0  0
    1.7308    0.4378    0.0702 C   0  0  0  0  0  0  0  0  0  0  0  0
    0.3942   -0.3082    0.0035 C   0  0  0  0  0  0  0  0  0  0  0  0
    2.9856   -0.4366   -0.0098 C   0  0  0  0  0  0  0  0  0  0  0  0
   -0.8611    0.5697    0.0280 C   0  0  0  0  0  0  0  0  0  0  0  0
    4.2882    0.3656    0.0127 C   0  0  0  0  0  0  0  0  0  0  0  0
   -2.1646   -0.2360    0.0403 C   0  0  0  0  0  0  0  0  0  0  0  0
    5.5066   -0.5555   -0.0628 C   0  0  0  0  0  0  0  0  0  0  0  0
   -3.4030    0.6600   -0.0210 C   0  0  0  0  0  0  0  0  0  0  0  0
    6.8053    0.2331   -0.0090 C   0  0  0  0  0  0  0  0  0  0  0  0
   -4.7022   -0.1148   -0.0212 C   0  0  0  0  0  0  0  0  0  0  0  0
    1.7623    1.0179    1.0011 H   0  0  0  0  0  0  0  0  0  0  0  0
    1.7602    1.1675   -0.7490 H   0  0  0  0  0  0  0  0  0  0  0  0
    0.3497   -1.0120    0.8443 H   0  0  0  0  0  0  0  0  0  0  0  0
    0.3775   -0.9170   -0.9093 H   0  0  0  0  0  0  0  0  0  0  0  0
    2.9450   -1.0335   -0.9293 H   0  0  0  0  0  0  0  0  0  0  0  0
    2.9783   -1.1451    0.8277 H   0  0  0  0  0  0  0  0  0  0  0  0
   -0.8306    1.2165    0.9134 H   0  0  0  0  0  0  0  0  0  0  0  0
   -0.8484    1.2301   -0.8477 H   0  0  0  0  0  0  0  0  0  0  0  0
    4.3026    1.0670   -0.8302 H   0  0  0  0  0  0  0  0  0  0  0  0
    4.3329    0.9628    0.9315 H   0  0  0  0  0  0  0  0  0  0  0  0
   -2.2031   -0.8567    0.9441 H   0  0  0  0  0  0  0  0  0  0  0  0
   -2.1743   -0.9264   -0.8124 H   0  0  0  0  0  0  0  0  0  0  0  0
    5.4864   -1.2693    0.7691 H   0  0  0  0  0  0  0  0  0  0  0  0
    5.4762   -1.1378   -0.9911 H   0  0  0  0  0  0  0  0  0  0  0  0
   -3.4107    1.3305    0.8457 H   0  0  0  0  0  0  0  0  0  0  0  0
   -3.3732    1.2642   -0.9347 H   0  0  0  0  0  0  0  0  0  0  0  0
    6.8721    0.9362   -0.8454 H   0  0  0  0  0  0  0  0  0  0  0  0
    7.6629   -0.4445   -0.0655 H   0  0  0  0  0  0  0  0  0  0  0  0
    6.8816    0.8005    0.9241 H   0  0  0  0  0  0  0  0  0  0  0  0
   -6.6227    0.2221   -0.0425 H   0  0  0  0  0  0  0  0  0  0  0  0
  1 12  1  0  0  0  0
  1 32  1  0  0  0  0
  2 12  2  0  0  0  0
  3  4  1  0  0  0  0
  3  5  1  0  0  0  0
  3 13  1  0  0  0  0
  3 14  1  0  0  0  0
  4  6  1  0  0  0  0
  4 15  1  0  0  0  0
  4 16  1  0  0  0  0
  5  7  1  0  0  0  0
  5 17  1  0  0  0  0
  5 18  1  0  0  0  0
  6  8  1  0  0  0  0
  6 19  1  0  0  0  0
  6 20  1  0  0  0  0
  7  9  1  0  0  0  0
  7 21  1  0  0  0  0
  7 22  1  0  0  0  0
  8 10  1  0  0  0  0
  8 23  1  0  0  0  0
  8 24  1  0  0  0  0
  9 11  1  0  0  0  0
  9 25  1  0  0  0  0
  9 26  1  0  0  0  0
 10 12  1  0  0  0  0
 10 27  1  0  0  0  0
 10 28  1  0  0  0  0
 11 29  1  0  0  0  0
 11 30  1  0  0  0  0
 11 31  1  0  0  0  0
M  END
> <DATABASE_ID>
DB03600

> <DATABASE_NAME>
drugbank

> <ORIGINAL_SOURCE>
PUBCHEM

> <ORIGINAL_SOURCE_URL>
https://pubchem.ncbi.nlm.nih.gov/rest/pug/compound/inchikey/GHVNFZFCNZKVNT-UHFFFAOYSA-N/SDF?record_type=3d

> <SMILES>
CCCCCCCCCC(O)=O

> <INCHI_IDENTIFIER>
InChI=1S/C10H20O2/c1-2-3-4-5-6-7-8-9-10(11)12/h2-9H2,1H3,(H,11,12)

> <INCHI_KEY>
GHVNFZFCNZKVNT-UHFFFAOYSA-N

> <FORMULA>
C10H20O2

> <MOLECULAR_WEIGHT>
172.2646

> <EXACT_MASS>
172.146329884

> <JCHEM_ACCEPTOR_COUNT>
2

> <JCHEM_AVERAGE_POLARIZABILITY>
21.60666350635801

> <JCHEM_BIOAVAILABILITY>
1

> <JCHEM_DONOR_COUNT>
1

> <JCHEM_FORMAL_CHARGE>
0

> <JCHEM_GHOSE_FILTER>
1

> <JCHEM_IUPAC>
decanoic acid

> <ALOGPS_LOGP>
3.93

> <JCHEM_LOGP>
3.5891707876666663

> <ALOGPS_LOGS>
-3.26

> <JCHEM_MDDR_LIKE_RULE>
0

> <JCHEM_NUMBER_OF_RINGS>
0

> <JCHEM_PHYSIOLOGICAL_CHARGE>
-1

> <JCHEM_PKA_STRONGEST_ACIDIC>
4.952019655228562

> <JCHEM_POLAR_SURFACE_AREA>
37.3

> <JCHEM_REFRACTIVITY>
49.477599999999995

> <JCHEM_ROTATABLE_BOND_COUNT>
8

> <JCHEM_RULE_OF_FIVE>
1

> <ALOGPS_SOLUBILITY>
9.46e-02 g/l

> <JCHEM_TRADITIONAL_IUPAC>
capric acid

> <JCHEM_VEBER_RULE>
1

$$$$
6323491
  -OEChem-02252018103D

 42 44  0     1  0  0  0  0  0999 V2000
   -4.5885    0.9870    0.2134 Cl  0  0  0  0  0  0  0  0  0  0  0  0
    4.4824   -0.0400    1.9510 O   0  0  0  0  0  0  0  0  0  0  0  0
    1.2519   -1.3148   -0.5347 O   0  0  0  0  0  0  0  0  0  0  0  0
    0.3520   -0.1877   -2.3300 O   0  0  0  0  0  0  0  0  0  0  0  0
   -0.2913   -3.0209    0.3731 O   0  0  0  0  0  0  0  0  0  0  0  0
   -2.1172    3.2136    0.1919 O   0  0  0  0  0  0  0  0  0  0  0  0
   -4.5151   -1.4916    1.7371 O   0  0  0  0  0  0  0  0  0  0  0  0
    3.3815   -0.5000    1.1767 C   0  0  1  0  0  0  0  0  0  0  0  0
    3.9365    0.9159    1.0260 C   0  0  1  0  0  0  0  0  0  0  0  0
    3.6009   -1.4957    0.0899 C   0  0  0  0  0  0  0  0  0  0  0  0
    2.6019   -1.2670   -1.0673 C   0  0  1  0  0  0  0  0  0  0  0  0
    2.8538    1.8876    1.2417 C   0  0  0  0  0  0  0  0  0  0  0  0
    2.7630   -2.3524   -2.1266 C   0  0  0  0  0  0  0  0  0  0  0  0
    2.1425    2.3628    0.2064 C   0  0  0  0  0  0  0  0  0  0  0  0
    0.2434   -0.7323   -1.2452 C   0  0  0  0  0  0  0  0  0  0  0  0
   -1.0369   -0.8577   -0.4864 C   0  0  0  0  0  0  0  0  0  0  0  0
   -2.0839    0.0923   -0.5661 C   0  0  0  0  0  0  0  0  0  0  0  0
    0.7615    2.7633    0.3214 C   0  0  0  0  0  0  0  0  0  0  0  0
   -2.0537    1.3732   -1.3727 C   0  0  0  0  0  0  0  0  0  0  0  0
   -1.2039   -2.0039    0.3152 C   0  0  0  0  0  0  0  0  0  0  0  0
   -0.0078    2.7365   -0.7750 C   0  0  0  0  0  0  0  0  0  0  0  0
   -1.4632    2.5309   -0.5903 C   0  0  0  0  0  0  0  0  0  0  0  0
   -3.2482   -0.1319    0.1991 C   0  0  0  0  0  0  0  0  0  0  0  0
   -2.3703   -2.2026    1.0528 C   0  0  0  0  0  0  0  0  0  0  0  0
   -3.3912   -1.2645    0.9987 C   0  0  0  0  0  0  0  0  0  0  0  0
    2.4574   -0.6722    1.7163 H   0  0  0  0  0  0  0  0  0  0  0  0
    4.5728    1.1383    0.1752 H   0  0  0  0  0  0  0  0  0  0  0  0
    4.6289   -1.4459   -0.2880 H   0  0  0  0  0  0  0  0  0  0  0  0
    3.4532   -2.4956    0.5154 H   0  0  0  0  0  0  0  0  0  0  0  0
    2.7779   -0.2794   -1.5101 H   0  0  0  0  0  0  0  0  0  0  0  0
    2.4812    1.9922    2.2577 H   0  0  0  0  0  0  0  0  0  0  0  0
    3.7813   -2.3664   -2.5267 H   0  0  0  0  0  0  0  0  0  0  0  0
    2.5340   -3.3401   -1.7117 H   0  0  0  0  0  0  0  0  0  0  0  0
    2.0695   -2.1944   -2.9587 H   0  0  0  0  0  0  0  0  0  0  0  0
    2.5132    2.1799   -0.8011 H   0  0  0  0  0  0  0  0  0  0  0  0
    0.3272    2.8265    1.3149 H   0  0  0  0  0  0  0  0  0  0  0  0
   -1.4912    1.2308   -2.3000 H   0  0  0  0  0  0  0  0  0  0  0  0
   -3.0372    1.6725   -1.7503 H   0  0  0  0  0  0  0  0  0  0  0  0
    0.3982    2.5523   -1.7642 H   0  0  0  0  0  0  0  0  0  0  0  0
   -2.4771   -3.0997    1.6584 H   0  0  0  0  0  0  0  0  0  0  0  0
    0.3540   -2.9285   -0.3453 H   0  0  0  0  0  0  0  0  0  0  0  0
   -4.4188   -2.3290    2.2221 H   0  0  0  0  0  0  0  0  0  0  0  0
  1 23  1  0  0  0  0
  2  8  1  0  0  0  0
  2  9  1  0  0  0  0
  3 11  1  0  0  0  0
  3 15  1  0  0  0  0
  4 15  2  0  0  0  0
  5 20  1  0  0  0  0
  5 41  1  0  0  0  0
  6 22  2  0  0  0  0
  7 25  1  0  0  0  0
  7 42  1  0  0  0  0
  8  9  1  0  0  0  0
  8 10  1  0  0  0  0
  8 26  1  0  0  0  0
  9 12  1  0  0  0  0
  9 27  1  0  0  0  0
 10 11  1  0  0  0  0
 10 28  1  0  0  0  0
 10 29  1  0  0  0  0
 11 13  1  0  0  0  0
 11 30  1  0  0  0  0
 12 14  2  3  0  0  0
 12 31  1  0  0  0  0
 13 32  1  0  0  0  0
 13 33  1  0  0  0  0
 13 34  1  0  0  0  0
 14 18  1  0  0  0  0
 14 35  1  0  0  0  0
 15 16  1  0  0  0  0
 16 17  2  0  0  0  0
 16 20  1  0  0  0  0
 17 19  1  0  0  0  0
 17 23  1  0  0  0  0
 18 21  2  0  0  0  0
 18 36  1  0  0  0  0
 19 22  1  0  0  0  0
 19 37  1  0  0  0  0
 19 38  1  0  0  0  0
 20 24  2  0  0  0  0
 21 22  1  0  0  0  0
 21 39  1  0  0  0  0
 23 25  2  0  0  0  0
 24 25  1  0  0  0  0
 24 40  1  0  0  0  0
M  END
> <DATABASE_ID>
DB03758

> <DATABASE_NAME>
drugbank

> <ORIGINAL_SOURCE>
PUBCHEM

> <ORIGINAL_SOURCE_URL>
https://pubchem.ncbi.nlm.nih.gov/rest/pug/compound/inchikey/WYZWZEOGROVVHK-GTMNPGAYSA-N/SDF?record_type=3d

> <SMILES>
C[C@@H]1C[C@H]2O[C@@H]2\C=C/C=C/C(=O)CC2=C(Cl)C(O)=CC(O)=C2C(=O)O1

> <INCHI_IDENTIFIER>
InChI=1S/C18H17ClO6/c1-9-6-15-14(25-15)5-3-2-4-10(20)7-11-16(18(23)24-9)12(21)8-13(22)17(11)19/h2-5,8-9,14-15,21-22H,6-7H2,1H3/b4-2+,5-3-/t9-,14-,15-/m1/s1

> <INCHI_KEY>
WYZWZEOGROVVHK-GTMNPGAYSA-N

> <FORMULA>
C18H17ClO6

> <MOLECULAR_WEIGHT>
364.777

> <EXACT_MASS>
364.071365983

> <JCHEM_ACCEPTOR_COUNT>
5

> <JCHEM_ATOM_COUNT>
42

> <JCHEM_AVERAGE_NEUTRAL_MICROSPECIES_CHARGE>
-0.48840436352639927

> <JCHEM_AVERAGE_POLARIZABILITY>
34.5147214469731

> <JCHEM_BIOAVAILABILITY>
1

> <JCHEM_DONOR_COUNT>
2

> <JCHEM_FORMAL_CHARGE>
0

> <JCHEM_GHOSE_FILTER>
1

> <JCHEM_IUPAC>
(4R,6R,8R,9Z,11E)-16-chloro-17,19-dihydroxy-4-methyl-3,7-dioxatricyclo[13.4.0.0^{6,8}]nonadeca-1(19),9,11,15,17-pentaene-2,13-dione

> <ALOGPS_LOGP>
3.22

> <JCHEM_LOGP>
3.6765286639999997

> <ALOGPS_LOGS>
-3.29

> <JCHEM_MDDR_LIKE_RULE>
0

> <JCHEM_NEUTRAL_CHARGE>
0

> <JCHEM_NUMBER_OF_RINGS>
3

> <JCHEM_PHYSIOLOGICAL_CHARGE>
-1

> <JCHEM_PKA>
9.843073231549644

> <JCHEM_PKA_STRONGEST_ACIDIC>
7.022605485153255

> <JCHEM_PKA_STRONGEST_BASIC>
-4.124046059412485

> <JCHEM_POLAR_SURFACE_AREA>
96.35999999999999

> <JCHEM_REFRACTIVITY>
93.56089999999999

> <JCHEM_ROTATABLE_BOND_COUNT>
0

> <JCHEM_RULE_OF_FIVE>
1

> <ALOGPS_SOLUBILITY>
1.88e-01 g/l

> <JCHEM_TRADITIONAL_IUPAC>
mesoxalic acid

> <JCHEM_VEBER_RULE>
0

$$$$
243
  -OEChem-08161916473D

 15 15  0     0  0  0  0  0  0999 V2000
    2.3067   -1.1843    0.0008 O   0  0  0  0  0  0  0  0  0  0  0  0
    2.4571    1.0837   -0.0005 O   0  0  0  0  0  0  0  0  0  0  0  0
    0.3072    0.0339    0.0000 C   0  0  0  0  0  0  0  0  0  0  0  0
   -0.4142    1.2278    0.0003 C   0  0  0  0  0  0  0  0  0  0  0  0
   -0.3662   -1.1878   -0.0003 C   0  0  0  0  0  0  0  0  0  0  0  0
   -1.8088    1.2003    0.0003 C   0  0  0  0  0  0  0  0  0  0  0  0
   -1.7609   -1.2153   -0.0003 C   0  0  0  0  0  0  0  0  0  0  0  0
   -2.4820   -0.0213    0.0000 C   0  0  0  0  0  0  0  0  0  0  0  0
    1.7611    0.0629   -0.0003 C   0  0  0  0  0  0  0  0  0  0  0  0
    0.0914    2.1900    0.0004 H   0  0  0  0  0  0  0  0  0  0  0  0
    0.1555   -2.1407   -0.0006 H   0  0  0  0  0  0  0  0  0  0  0  0
   -2.3706    2.1298    0.0005 H   0  0  0  0  0  0  0  0  0  0  0  0
   -2.2859   -2.1661   -0.0005 H   0  0  0  0  0  0  0  0  0  0  0  0
   -3.5679   -0.0428    0.0000 H   0  0  0  0  0  0  0  0  0  0  0  0
    3.2873   -1.1536    0.0011 H   0  0  0  0  0  0  0  0  0  0  0  0
  1  9  1  0  0  0  0
  1 15  1  0  0  0  0
  2  9  2  0  0  0  0
  3  4  2  0  0  0  0
  3  5  1  0  0  0  0
  3  9  1  0  0  0  0
  4  6  1  0  0  0  0
  4 10  1  0  0  0  0
  5  7  2  0  0  0  0
  5 11  1  0  0  0  0
  6  8  2  0  0  0  0
  6 12  1  0  0  0  0
  7  8  1  0  0  0  0
  7 13  1  0  0  0  0
  8 14  1  0  0  0  0
M  END
> <DATABASE_ID>
DB03793

> <DATABASE_NAME>
drugbank

> <ORIGINAL_SOURCE>
PUBCHEM

> <ORIGINAL_SOURCE_URL>
https://pubchem.ncbi.nlm.nih.gov/rest/pug/compound/inchikey/WPYMKLBDIGXBTP-UHFFFAOYSA-N/SDF?record_type=3d

> <SMILES>
OC(=O)C1=CC=CC=C1

> <INCHI_IDENTIFIER>
InChI=1S/C7H6O2/c8-7(9)6-4-2-1-3-5-6/h1-5H,(H,8,9)

> <INCHI_KEY>
WPYMKLBDIGXBTP-UHFFFAOYSA-N

> <FORMULA>
C7H6O2

> <MOLECULAR_WEIGHT>
122.123

> <EXACT_MASS>
122.036779433

> <JCHEM_ACCEPTOR_COUNT>
2

> <JCHEM_ATOM_COUNT>
15

> <JCHEM_AVERAGE_POLARIZABILITY>
11.97308273996681

> <JCHEM_BIOAVAILABILITY>
1

> <JCHEM_DONOR_COUNT>
1

> <JCHEM_FORMAL_CHARGE>
0

> <JCHEM_GHOSE_FILTER>
0

> <JCHEM_IUPAC>
benzoic acid

> <ALOGPS_LOGP>
1.72

> <JCHEM_LOGP>
1.630828724

> <ALOGPS_LOGS>
-1.24

> <JCHEM_MDDR_LIKE_RULE>
0

> <JCHEM_NUMBER_OF_RINGS>
1

> <JCHEM_PHYSIOLOGICAL_CHARGE>
-1

> <JCHEM_PKA_STRONGEST_ACIDIC>
4.07523327743486

> <JCHEM_POLAR_SURFACE_AREA>
37.3

> <JCHEM_REFRACTIVITY>
33.3142

> <JCHEM_ROTATABLE_BOND_COUNT>
1

> <JCHEM_RULE_OF_FIVE>
1

> <ALOGPS_SOLUBILITY>
7.08e+00 g/l

> <JCHEM_TRADITIONAL_IUPAC>
benzoic acid

> <JCHEM_VEBER_RULE>
1

$$$$
66644
  -OEChem-10051720223D

 18 18  0     0  0  0  0  0  0999 V2000
   -0.4938   -2.2426   -0.2231 O   0  0  0  0  0  0  0  0  0  0  0  0
    1.8340   -1.2052    0.5890 O   0  0  0  0  0  0  0  0  0  0  0  0
    3.5935    0.6481   -0.2503 O   0  0  0  0  0  0  0  0  0  0  0  0
    2.2119    0.8767   -0.3256 N   0  0  0  0  0  0  0  0  0  0  0  0
   -0.0501    0.0968    0.0705 C   0  0  0  0  0  0  0  0  0  0  0  0
   -0.9425   -0.9610   -0.1046 C   0  0  0  0  0  0  0  0  0  0  0  0
   -0.5296    1.4014    0.1881 C   0  0  0  0  0  0  0  0  0  0  0  0
   -2.3142   -0.7140   -0.1620 C   0  0  0  0  0  0  0  0  0  0  0  0
   -1.9013    1.6482    0.1306 C   0  0  0  0  0  0  0  0  0  0  0  0
   -2.7936    0.5906   -0.0445 C   0  0  0  0  0  0  0  0  0  0  0  0
    1.3856   -0.1389    0.1319 C   0  0  0  0  0  0  0  0  0  0  0  0
    0.1329    2.2476    0.3475 H   0  0  0  0  0  0  0  0  0  0  0  0
   -3.0210   -1.5282   -0.2980 H   0  0  0  0  0  0  0  0  0  0  0  0
   -2.2755    2.6633    0.2272 H   0  0  0  0  0  0  0  0  0  0  0  0
   -3.8617    0.7828   -0.0880 H   0  0  0  0  0  0  0  0  0  0  0  0
    1.9224    1.7162   -0.8142 H   0  0  0  0  0  0  0  0  0  0  0  0
   -1.2554   -2.8366   -0.3377 H   0  0  0  0  0  0  0  0  0  0  0  0
    3.7908    1.0720    0.6021 H   0  0  0  0  0  0  0  0  0  0  0  0
  1  6  1  0  0  0  0
  1 17  1  0  0  0  0
  2 11  2  0  0  0  0
  3  4  1  0  0  0  0
  3 18  1  0  0  0  0
  4 11  1  0  0  0  0
  4 16  1  0  0  0  0
  5  6  1  0  0  0  0
  5  7  2  0  0  0  0
  5 11  1  0  0  0  0
  6  8  2  0  0  0  0
  7  9  1  0  0  0  0
  7 12  1  0  0  0  0
  8 10  1  0  0  0  0
  8 13  1  0  0  0  0
  9 10  2  0  0  0  0
  9 14  1  0  0  0  0
 10 15  1  0  0  0  0
M  END
> <DATABASE_ID>
DB03819

> <DATABASE_NAME>
drugbank

> <ORIGINAL_SOURCE>
PUBCHEM

> <ORIGINAL_SOURCE_URL>
https://pubchem.ncbi.nlm.nih.gov/rest/pug/compound/inchikey/HBROZNQEVUILML-UHFFFAOYSA-N/SDF?record_type=3d

> <SMILES>
ONC(=O)C1=CC=CC=C1O

> <INCHI_IDENTIFIER>
InChI=1S/C7H7NO3/c9-6-4-2-1-3-5(6)7(10)8-11/h1-4,9,11H,(H,8,10)

> <INCHI_KEY>
HBROZNQEVUILML-UHFFFAOYSA-N

> <FORMULA>
C7H7NO3

> <MOLECULAR_WEIGHT>
153.1354

> <EXACT_MASS>
153.042593095

> <JCHEM_ACCEPTOR_COUNT>
3

> <JCHEM_AVERAGE_POLARIZABILITY>
14.166873869347885

> <JCHEM_BIOAVAILABILITY>
1

> <JCHEM_DONOR_COUNT>
3

> <JCHEM_FORMAL_CHARGE>
0

> <JCHEM_GHOSE_FILTER>
0

> <JCHEM_IUPAC>
N,2-dihydroxybenzamide

> <ALOGPS_LOGP>
0.21

> <JCHEM_LOGP>
1.1671390613333332

> <ALOGPS_LOGS>
-1.28

> <JCHEM_MDDR_LIKE_RULE>
0

> <JCHEM_NUMBER_OF_RINGS>
1

> <JCHEM_PHYSIOLOGICAL_CHARGE>
0

> <JCHEM_PKA>
9.851213449003092

> <JCHEM_PKA_STRONGEST_ACIDIC>
8.009476066404712

> <JCHEM_PKA_STRONGEST_BASIC>
-5.262403530561273

> <JCHEM_POLAR_SURFACE_AREA>
69.56

> <JCHEM_REFRACTIVITY>
38.881899999999995

> <JCHEM_ROTATABLE_BOND_COUNT>
1

> <JCHEM_RULE_OF_FIVE>
1

> <ALOGPS_SOLUBILITY>
8.03e+00 g/l

> <JCHEM_TRADITIONAL_IUPAC>
salicylhydroxamic acid

> <JCHEM_VEBER_RULE>
0

$$$$
444732
  -OEChem-02082014363D

 44 44  0     1  0  0  0  0  0999 V2000
   -0.7418    2.1044   -1.7725 O   0  0  0  0  0  0  0  0  0  0  0  0
    5.9303   -0.2260   -1.2631 O   0  0  0  0  0  0  0  0  0  0  0  0
    7.6595   -2.0603   -0.2763 O   0  0  0  0  0  0  0  0  0  0  0  0
   -5.5053   -1.5971    0.1651 N   0  0  0  0  0  0  0  0  0  0  0  0
    6.4338   -1.8005    0.3521 N   0  0  0  0  0  0  0  0  0  0  0  0
    0.0081    1.9263    0.5155 C   0  0  1  0  0  0  0  0  0  0  0  0
   -0.9473    1.6488   -0.6476 C   0  0  0  0  0  0  0  0  0  0  0  0
   -2.1504    0.7927   -0.4334 C   0  0  0  0  0  0  0  0  0  0  0  0
    1.3825    1.4739    0.0892 C   0  0  0  0  0  0  0  0  0  0  0  0
    0.0218    3.4215    0.8369 C   0  0  0  0  0  0  0  0  0  0  0  0
   -4.3686   -0.7873   -0.0378 C   0  0  0  0  0  0  0  0  0  0  0  0
   -2.7356    0.7774    0.8122 C   0  0  0  0  0  0  0  0  0  0  0  0
   -2.6284    0.0505   -1.4893 C   0  0  0  0  0  0  0  0  0  0  0  0
   -3.8598   -0.0235    1.0128 C   0  0  0  0  0  0  0  0  0  0  0  0
   -3.7527   -0.7503   -1.2888 C   0  0  0  0  0  0  0  0  0  0  0  0
    2.1704    0.5415    0.6666 C   0  0  0  0  0  0  0  0  0  0  0  0
    1.8047   -0.2066    1.9222 C   0  0  0  0  0  0  0  0  0  0  0  0
   -6.1523   -1.6425    1.4612 C   0  0  0  0  0  0  0  0  0  0  0  0
   -6.0499   -2.3837   -0.9239 C   0  0  0  0  0  0  0  0  0  0  0  0
    3.4669    0.2413    0.0519 C   0  0  0  0  0  0  0  0  0  0  0  0
    4.3674   -0.6511    0.4923 C   0  0  0  0  0  0  0  0  0  0  0  0
    5.6466   -0.8493   -0.2455 C   0  0  0  0  0  0  0  0  0  0  0  0
   -0.3111    1.3937    1.4079 H   0  0  0  0  0  0  0  0  0  0  0  0
    1.7571    1.9726   -0.8066 H   0  0  0  0  0  0  0  0  0  0  0  0
    0.7019    3.6382    1.6680 H   0  0  0  0  0  0  0  0  0  0  0  0
    0.3374    4.0210   -0.0250 H   0  0  0  0  0  0  0  0  0  0  0  0
   -0.9800    3.7624    1.1207 H   0  0  0  0  0  0  0  0  0  0  0  0
   -2.3905    1.3872    1.6398 H   0  0  0  0  0  0  0  0  0  0  0  0
   -2.1553    0.0652   -2.4665 H   0  0  0  0  0  0  0  0  0  0  0  0
   -4.3080   -0.0113    2.0015 H   0  0  0  0  0  0  0  0  0  0  0  0
   -4.1087   -1.3269   -2.1369 H   0  0  0  0  0  0  0  0  0  0  0  0
    2.5553   -0.0349    2.7021 H   0  0  0  0  0  0  0  0  0  0  0  0
    1.7479   -1.2825    1.7221 H   0  0  0  0  0  0  0  0  0  0  0  0
    0.8454    0.0812    2.3541 H   0  0  0  0  0  0  0  0  0  0  0  0
   -6.5322   -0.6558    1.7487 H   0  0  0  0  0  0  0  0  0  0  0  0
   -5.4679   -2.0121    2.2329 H   0  0  0  0  0  0  0  0  0  0  0  0
   -7.0136   -2.3199    1.4603 H   0  0  0  0  0  0  0  0  0  0  0  0
   -6.9321   -2.9530   -0.6104 H   0  0  0  0  0  0  0  0  0  0  0  0
   -5.3201   -3.1161   -1.2866 H   0  0  0  0  0  0  0  0  0  0  0  0
   -6.3713   -1.7433   -1.7529 H   0  0  0  0  0  0  0  0  0  0  0  0
    3.6958    0.8095   -0.8487 H   0  0  0  0  0  0  0  0  0  0  0  0
    4.2022   -1.2505    1.3810 H   0  0  0  0  0  0  0  0  0  0  0  0
    6.1888   -2.3893    1.1402 H   0  0  0  0  0  0  0  0  0  0  0  0
    8.2472   -1.4952    0.2533 H   0  0  0  0  0  0  0  0  0  0  0  0
  1  7  2  0  0  0  0
  2 22  2  0  0  0  0
  3  5  1  0  0  0  0
  3 44  1  0  0  0  0
  4 11  1  0  0  0  0
  4 18  1  0  0  0  0
  4 19  1  0  0  0  0
  5 22  1  0  0  0  0
  5 43  1  0  0  0  0
  6  7  1  0  0  0  0
  6  9  1  0  0  0  0
  6 10  1  0  0  0  0
  6 23  1  0  0  0  0
  7  8  1  0  0  0  0
  8 12  2  0  0  0  0
  8 13  1  0  0  0  0
  9 16  2  0  0  0  0
  9 24  1  0  0  0  0
 10 25  1  0  0  0  0
 10 26  1  0  0  0  0
 10 27  1  0  0  0  0
 11 14  2  0  0  0  0
 11 15  1  0  0  0  0
 12 14  1  0  0  0  0
 12 28  1  0  0  0  0
 13 15  2  0  0  0  0
 13 29  1  0  0  0  0
 14 30  1  0  0  0  0
 15 31  1  0  0  0  0
 16 17  1  0  0  0  0
 16 20  1  0  0  0  0
 17 32  1  0  0  0  0
 17 33  1  0  0  0  0
 17 34  1  0  0  0  0
 18 35  1  0  0  0  0
 18 36  1  0  0  0  0
 18 37  1  0  0  0  0
 19 38  1  0  0  0  0
 19 39  1  0  0  0  0
 19 40  1  0  0  0  0
 20 21  2  0  0  0  0
 20 41  1  0  0  0  0
 21 22  1  0  0  0  0
 21 42  1  0  0  0  0
M  END
> <DATABASE_ID>
DB04297

> <DATABASE_NAME>
drugbank

> <ORIGINAL_SOURCE>
PUBCHEM

> <ORIGINAL_SOURCE_URL>
https://pubchem.ncbi.nlm.nih.gov/rest/pug/compound/inchikey/RTKIYFITIVXBLE-QEQCGCAPSA-N/SDF?record_type=3d

> <SMILES>
C[C@H](\C=C(/C)\C=C\C(=O)NO)C(=O)C1=CC=C(C=C1)N(C)C

> <INCHI_IDENTIFIER>
InChI=1S/C17H22N2O3/c1-12(5-10-16(20)18-22)11-13(2)17(21)14-6-8-15(9-7-14)19(3)4/h5-11,13,22H,1-4H3,(H,18,20)/b10-5+,12-11+/t13-/m1/s1

> <INCHI_KEY>
RTKIYFITIVXBLE-QEQCGCAPSA-N

> <FORMULA>
C17H22N2O3

> <MOLECULAR_WEIGHT>
302.3682

> <EXACT_MASS>
302.16304258

> <JCHEM_ACCEPTOR_COUNT>
4

> <JCHEM_ATOM_COUNT>
44

> <JCHEM_AVERAGE_NEUTRAL_MICROSPECIES_CHARGE>
-0.0024717851956140707

> <JCHEM_AVERAGE_POLARIZABILITY>
34.05933146673187

> <JCHEM_BIOAVAILABILITY>
1

> <JCHEM_DONOR_COUNT>
2

> <JCHEM_FORMAL_CHARGE>
0

> <JCHEM_GHOSE_FILTER>
1

> <JCHEM_IUPAC>
(2E,4E,6R)-7-[4-(dimethylamino)phenyl]-N-hydroxy-4,6-dimethyl-7-oxohepta-2,4-dienamide

> <ALOGPS_LOGP>
2.36

> <JCHEM_LOGP>
2.4096309773333324

> <ALOGPS_LOGS>
-3.85

> <JCHEM_MDDR_LIKE_RULE>
0

> <JCHEM_NEUTRAL_CHARGE>
0

> <JCHEM_NUMBER_OF_RINGS>
1

> <JCHEM_PHYSIOLOGICAL_CHARGE>
0

> <JCHEM_PKA>
14.090004411076219

> <JCHEM_PKA_STRONGEST_ACIDIC>
9.567311454805958

> <JCHEM_PKA_STRONGEST_BASIC>
3.360376109059741

> <JCHEM_POLAR_SURFACE_AREA>
69.64

> <JCHEM_REFRACTIVITY>
90.23889999999997

> <JCHEM_ROTATABLE_BOND_COUNT>
6

> <JCHEM_RULE_OF_FIVE>
1

> <ALOGPS_SOLUBILITY>
4.25e-02 g/l

> <JCHEM_TRADITIONAL_IUPAC>
11-[(1S,3aS,3bR,4R,9bS,11aS)-1,7-dihydroxy-11a-methyl-1H,2H,3H,3aH,3bH,4H,5H,9bH,10H,11H-cyclopenta[a]phenanthren-4-yl]-N-butyl-N-methylundecanamide

> <JCHEM_VEBER_RULE>
0

$$$$
10972974
  -OEChem-10051720413D

 66 67  0     1  0  0  0  0  0999 V2000
   -2.3765   -2.1093   -1.4430 S   0  0  0  0  0  0  0  0  0  0  0  0
   -0.4528    0.9831    2.3892 S   0  0  0  0  0  0  0  0  0  0  0  0
    5.0606    2.5347   -1.8077 O   0  0  0  0  0  0  0  0  0  0  0  0
    6.6373    0.2333    1.4751 O   0  0  0  0  0  0  0  0  0  0  0  0
    6.0119   -2.9014   -1.7790 O   0  0  0  0  0  0  0  0  0  0  0  0
    1.0068    0.4451    0.3246 N   0  0  0  0  0  0  0  0  0  0  0  0
   -2.4241   -0.8275    0.8014 N   0  0  0  0  0  0  0  0  0  0  0  0
    3.9218   -2.2699   -1.0606 N   0  0  0  0  0  0  0  0  0  0  0  0
    6.0795    0.5238   -0.8767 C   0  0  1  0  0  0  0  0  0  0  0  0
    5.1293    1.7235   -0.6337 C   0  0  2  0  0  0  0  0  0  0  0  0
    7.4869    0.9862   -1.2814 C   0  0  0  0  0  0  0  0  0  0  0  0
    6.1687   -0.3894    0.3351 C   0  0  0  0  0  0  0  0  0  0  0  0
    3.7194    1.2803   -0.3340 C   0  0  0  0  0  0  0  0  0  0  0  0
    3.0551    1.6320    0.7803 C   0  0  0  0  0  0  0  0  0  0  0  0
    5.8063   -1.6837    0.2727 C   0  0  0  0  0  0  0  0  0  0  0  0
   -4.5091   -2.0596    0.3039 C   0  0  1  0  0  0  0  0  0  0  0  0
    1.7181    1.2535    1.1661 C   0  0  0  0  0  0  0  0  0  0  0  0
   -3.1322   -1.6054    0.0129 C   0  0  0  0  0  0  0  0  0  0  0  0
    4.2279    3.6649   -1.6039 C   0  0  0  0  0  0  0  0  0  0  0  0
   -1.1940   -0.6103    0.2181 C   0  0  0  0  0  0  0  0  0  0  0  0
   -4.5642   -2.9849    1.5515 C   0  0  0  0  0  0  0  0  0  0  0  0
   -5.5697   -0.9484    0.3822 C   0  0  0  0  0  0  0  0  0  0  0  0
   -0.1690    0.2323    0.8724 C   0  0  0  0  0  0  0  0  0  0  0  0
   -9.7020    1.5681   -0.9190 C   0  0  0  0  0  0  0  0  0  0  0  0
    1.1234    1.6558    2.3235 C   0  0  0  0  0  0  0  0  0  0  0  0
    5.2919   -2.3476   -0.9563 C   0  0  0  0  0  0  0  0  0  0  0  0
    6.0805   -0.3568    2.6330 C   0  0  0  0  0  0  0  0  0  0  0  0
   -0.9799   -1.2194   -0.9975 C   0  0  0  0  0  0  0  0  0  0  0  0
   -6.6717   -0.8073   -0.3713 C   0  0  0  0  0  0  0  0  0  0  0  0
   -8.6881    0.4465   -0.9825 C   0  0  0  0  0  0  0  0  0  0  0  0
   -7.5861    0.3057   -0.2289 C   0  0  0  0  0  0  0  0  0  0  0  0
  -11.0959    0.9855   -0.6737 C   0  0  0  0  0  0  0  0  0  0  0  0
   -9.4099    2.6665    0.1071 C   0  0  0  0  0  0  0  0  0  0  0  0
    5.6969   -0.0165   -1.7519 H   0  0  0  0  0  0  0  0  0  0  0  0
    5.5352    2.3366    0.1828 H   0  0  0  0  0  0  0  0  0  0  0  0
    7.9351    1.6288   -0.5155 H   0  0  0  0  0  0  0  0  0  0  0  0
    8.1521    0.1293   -1.4366 H   0  0  0  0  0  0  0  0  0  0  0  0
    7.4588    1.5535   -2.2178 H   0  0  0  0  0  0  0  0  0  0  0  0
    3.2340    0.6533   -1.0785 H   0  0  0  0  0  0  0  0  0  0  0  0
    3.5844    2.2677    1.4893 H   0  0  0  0  0  0  0  0  0  0  0  0
   -4.8353   -2.7093   -0.5230 H   0  0  0  0  0  0  0  0  0  0  0  0
    5.8801   -2.3580    1.1190 H   0  0  0  0  0  0  0  0  0  0  0  0
    4.4552    4.1765   -0.6626 H   0  0  0  0  0  0  0  0  0  0  0  0
    3.1675    3.4017   -1.6604 H   0  0  0  0  0  0  0  0  0  0  0  0
    4.4237    4.3692   -2.4184 H   0  0  0  0  0  0  0  0  0  0  0  0
   -5.5763   -3.3759    1.7019 H   0  0  0  0  0  0  0  0  0  0  0  0
   -3.8825   -3.8347    1.4353 H   0  0  0  0  0  0  0  0  0  0  0  0
   -4.2715   -2.4403    2.4565 H   0  0  0  0  0  0  0  0  0  0  0  0
   -5.3691   -0.1991    1.1489 H   0  0  0  0  0  0  0  0  0  0  0  0
   -9.7097    2.0422   -1.9094 H   0  0  0  0  0  0  0  0  0  0  0  0
    1.5023    2.2857    3.1164 H   0  0  0  0  0  0  0  0  0  0  0  0
    6.5797   -1.2989    2.8839 H   0  0  0  0  0  0  0  0  0  0  0  0
    4.9926   -0.4810    2.5677 H   0  0  0  0  0  0  0  0  0  0  0  0
    6.2686    0.3261    3.4686 H   0  0  0  0  0  0  0  0  0  0  0  0
   -0.1067   -1.1955   -1.6349 H   0  0  0  0  0  0  0  0  0  0  0  0
   -6.8892   -1.5459   -1.1381 H   0  0  0  0  0  0  0  0  0  0  0  0
   -8.8927   -0.3064   -1.7436 H   0  0  0  0  0  0  0  0  0  0  0  0
   -7.3454    1.0396    0.5343 H   0  0  0  0  0  0  0  0  0  0  0  0
  -11.1562    0.4929    0.3035 H   0  0  0  0  0  0  0  0  0  0  0  0
  -11.3573    0.2468   -1.4398 H   0  0  0  0  0  0  0  0  0  0  0  0
  -11.8570    1.7729   -0.7019 H   0  0  0  0  0  0  0  0  0  0  0  0
   -8.4398    3.1380   -0.0838 H   0  0  0  0  0  0  0  0  0  0  0  0
  -10.1707    3.4533    0.0552 H   0  0  0  0  0  0  0  0  0  0  0  0
   -9.4078    2.2737    1.1300 H   0  0  0  0  0  0  0  0  0  0  0  0
    3.4359   -2.6796   -1.8514 H   0  0  0  0  0  0  0  0  0  0  0  0
    3.3450   -1.8101   -0.3628 H   0  0  0  0  0  0  0  0  0  0  0  0
  1 18  1  0  0  0  0
  1 28  1  0  0  0  0
  2 23  1  0  0  0  0
  2 25  1  0  0  0  0
  3 10  1  0  0  0  0
  3 19  1  0  0  0  0
  4 12  1  0  0  0  0
  4 27  1  0  0  0  0
  5 26  2  0  0  0  0
  6 17  1  0  0  0  0
  6 23  2  0  0  0  0
  7 18  2  0  0  0  0
  7 20  1  0  0  0  0
  8 26  1  0  0  0  0
  8 65  1  0  0  0  0
  8 66  1  0  0  0  0
  9 10  1  0  0  0  0
  9 11  1  0  0  0  0
  9 12  1  0  0  0  0
  9 34  1  0  0  0  0
 10 13  1  0  0  0  0
 10 35  1  0  0  0  0
 11 36  1  0  0  0  0
 11 37  1  0  0  0  0
 11 38  1  0  0  0  0
 12 15  2  0  0  0  0
 13 14  2  0  0  0  0
 13 39  1  0  0  0  0
 14 17  1  0  0  0  0
 14 40  1  0  0  0  0
 15 26  1  0  0  0  0
 15 42  1  0  0  0  0
 16 18  1  0  0  0  0
 16 21  1  0  0  0  0
 16 22  1  0  0  0  0
 16 41  1  0  0  0  0
 17 25  2  0  0  0  0
 19 43  1  0  0  0  0
 19 44  1  0  0  0  0
 19 45  1  0  0  0  0
 20 23  1  0  0  0  0
 20 28  2  0  0  0  0
 21 46  1  0  0  0  0
 21 47  1  0  0  0  0
 21 48  1  0  0  0  0
 22 29  2  0  0  0  0
 22 49  1  0  0  0  0
 24 30  1  0  0  0  0
 24 32  1  0  0  0  0
 24 33  1  0  0  0  0
 24 50  1  0  0  0  0
 25 51  1  0  0  0  0
 27 52  1  0  0  0  0
 27 53  1  0  0  0  0
 27 54  1  0  0  0  0
 28 55  1  0  0  0  0
 29 31  1  0  0  0  0
 29 56  1  0  0  0  0
 30 31  2  0  0  0  0
 30 57  1  0  0  0  0
 31 58  1  0  0  0  0
 32 59  1  0  0  0  0
 32 60  1  0  0  0  0
 32 61  1  0  0  0  0
 33 62  1  0  0  0  0
 33 63  1  0  0  0  0
 33 64  1  0  0  0  0
M  END
> <DATABASE_ID>
DB04741

> <DATABASE_NAME>
drugbank

> <ORIGINAL_SOURCE>
PUBCHEM

> <ORIGINAL_SOURCE_URL>
https://pubchem.ncbi.nlm.nih.gov/rest/pug/compound/inchikey/XKTFQMCPGMTBMD-FYHMSGCOSA-N/SDF?record_type=3d

> <SMILES>
CO[C@@H](\C=C\C1=CSC(=N1)C1=CSC(=N1)[C@@H](C)\C=C\C=C\C(C)C)[C@@H](C)C(\OC)=C/C(N)=O

> <INCHI_IDENTIFIER>
InChI=1S/C25H33N3O3S2/c1-16(2)9-7-8-10-17(3)24-28-20(15-33-24)25-27-19(14-32-25)11-12-21(30-5)18(4)22(31-6)13-23(26)29/h7-18,21H,1-6H3,(H2,26,29)/b9-7+,10-8+,12-11+,22-13+/t17-,18+,21-/m0/s1

> <INCHI_KEY>
XKTFQMCPGMTBMD-FYHMSGCOSA-N

> <FORMULA>
C25H33N3O3S2

> <MOLECULAR_WEIGHT>
487.678

> <EXACT_MASS>
487.196333317

> <JCHEM_ACCEPTOR_COUNT>
5

> <JCHEM_AVERAGE_POLARIZABILITY>
55.00961711406345

> <JCHEM_BIOAVAILABILITY>
1

> <JCHEM_DONOR_COUNT>
1

> <JCHEM_FORMAL_CHARGE>
0

> <JCHEM_GHOSE_FILTER>
0

> <JCHEM_IUPAC>
(2E,4R,5S,6E)-3,5-dimethoxy-4-methyl-7-(2-{2-[(2S,3E,5E)-7-methylocta-3,5-dien-2-yl]-1,3-thiazol-4-yl}-1,3-thiazol-4-yl)hepta-2,6-dienamide

> <ALOGPS_LOGP>
5.38

> <JCHEM_LOGP>
4.964887877666666

> <ALOGPS_LOGS>
-5.51

> <JCHEM_MDDR_LIKE_RULE>
0

> <JCHEM_NUMBER_OF_RINGS>
2

> <JCHEM_PHYSIOLOGICAL_CHARGE>
0

> <JCHEM_PKA_STRONGEST_ACIDIC>
15.913214384813429

> <JCHEM_PKA_STRONGEST_BASIC>
1.416522788363545

> <JCHEM_POLAR_SURFACE_AREA>
87.33000000000001

> <JCHEM_REFRACTIVITY>
149.96790000000001

> <JCHEM_ROTATABLE_BOND_COUNT>
12

> <JCHEM_RULE_OF_FIVE>
1

> <ALOGPS_SOLUBILITY>
1.49e-03 g/l

> <JCHEM_TRADITIONAL_IUPAC>
myxothiazol

> <JCHEM_VEBER_RULE>
0

$$$$

  Mrv1909 10301918572D          

 13 14  0  0  0  0            999 V2000
    5.6262    0.6794    0.0000 O   0  0  0  0  0  0  0  0  0  0  0  0
    4.9118    0.2669    0.0000 C   0  0  0  0  0  0  0  0  0  0  0  0
    4.9118   -0.5580    0.0000 C   0  0  0  0  0  0  0  0  0  0  0  0
    4.1973   -0.9705    0.0000 C   0  0  0  0  0  0  0  0  0  0  0  0
    4.1973   -1.7955    0.0000 O   0  0  0  0  0  0  0  0  0  0  0  0
    3.4828   -0.5580    0.0000 C   0  0  0  0  0  0  0  0  0  0  0  0
    2.7683   -0.9705    0.0000 C   0  0  0  0  0  0  0  0  0  0  0  0
    2.0539   -0.5580    0.0000 C   0  0  0  0  0  0  0  0  0  0  0  0
    2.0539    0.2669    0.0000 C   0  0  0  0  0  0  0  0  0  0  0  0
    2.7683    0.6794    0.0000 C   0  0  0  0  0  0  0  0  0  0  0  0
    3.4828    0.2669    0.0000 C   0  0  0  0  0  0  0  0  0  0  0  0
    4.1973    0.6794    0.0000 C   0  0  0  0  0  0  0  0  0  0  0  0
    4.1973    1.5044    0.0000 O   0  0  0  0  0  0  0  0  0  0  0  0
  1  2  1  0  0  0  0
  2  3  2  0  0  0  0
  3  4  1  0  0  0  0
  4  5  2  0  0  0  0
  4  6  1  0  0  0  0
  6  7  2  0  0  0  0
  7  8  1  0  0  0  0
  8  9  2  0  0  0  0
  9 10  1  0  0  0  0
 10 11  2  0  0  0  0
  6 11  1  0  0  0  0
 11 12  1  0  0  0  0
  2 12  1  0  0  0  0
 12 13  2  0  0  0  0
M  END
> <DATABASE_ID>
DB04744

> <DATABASE_NAME>
drugbank

> <SMILES>
OC1=CC(=O)C2=CC=CC=C2C1=O

> <INCHI_IDENTIFIER>
InChI=1S/C10H6O3/c11-8-5-9(12)10(13)7-4-2-1-3-6(7)8/h1-5,12H

> <INCHI_KEY>
CSFWPUWCSPOLJW-UHFFFAOYSA-N

> <FORMULA>
C10H6O3

> <MOLECULAR_WEIGHT>
174.1528

> <EXACT_MASS>
174.031694058

> <JCHEM_ACCEPTOR_COUNT>
3

> <JCHEM_ATOM_COUNT>
19

> <JCHEM_AVERAGE_POLARIZABILITY>
16.419152508837577

> <JCHEM_BIOAVAILABILITY>
1

> <JCHEM_DONOR_COUNT>
1

> <JCHEM_FORMAL_CHARGE>
0

> <JCHEM_GHOSE_FILTER>
0

> <JCHEM_IUPAC>
2-hydroxy-1,4-dihydronaphthalene-1,4-dione

> <ALOGPS_LOGP>
0.99

> <JCHEM_LOGP>
0.975660269333333

> <ALOGPS_LOGS>
-1.99

> <JCHEM_MDDR_LIKE_RULE>
0

> <JCHEM_NUMBER_OF_RINGS>
2

> <JCHEM_PHYSIOLOGICAL_CHARGE>
-1

> <JCHEM_PKA_STRONGEST_ACIDIC>
5.319285276038729

> <JCHEM_PKA_STRONGEST_BASIC>
-5.401604620510081

> <JCHEM_POLAR_SURFACE_AREA>
54.37

> <JCHEM_REFRACTIVITY>
48.150600000000004

> <JCHEM_ROTATABLE_BOND_COUNT>
0

> <JCHEM_RULE_OF_FIVE>
1

> <ALOGPS_SOLUBILITY>
1.80e+00 g/l

> <JCHEM_TRADITIONAL_IUPAC>
tigecycline

> <JCHEM_VEBER_RULE>
0

> <DRUGBANK_ID>
DB04744

> <DRUG_GROUPS>
experimental

> <GENERIC_NAME>
Lawsone

> <SYNONYMS>
2-hydroxy-1,4-naphthalenedione; 2-hydroxy-1,4-naphthoquinone; 2-hydroxynaphthoquinone; Lawsone

$$$$
2378
  -OEChem-10051720423D

 42 45  0     1  0  0  0  0  0999 V2000
    2.4626   -1.5480   -0.0918 N   0  0  0  0  0  0  0  0  0  0  0  0
    3.0944   -3.6194    0.0204 N   0  0  0  0  0  0  0  0  0  0  0  0
    1.8700   -0.2944   -0.6594 C   0  0  1  0  0  0  0  0  0  0  0  0
    0.3917   -0.1904   -0.4914 C   0  0  0  0  0  0  0  0  0  0  0  0
    2.7138    0.9362   -0.2824 C   0  0  0  0  0  0  0  0  0  0  0  0
   -0.3896    0.3565   -1.5095 C   0  0  0  0  0  0  0  0  0  0  0  0
   -0.2096   -0.6399    0.6842 C   0  0  0  0  0  0  0  0  0  0  0  0
   -2.3733    0.0046   -0.1763 C   0  0  0  0  0  0  0  0  0  0  0  0
    3.8612    1.1801   -0.9936 C   0  0  0  0  0  0  0  0  0  0  0  0
    2.2790    1.7320    0.7469 C   0  0  0  0  0  0  0  0  0  0  0  0
   -1.7720    0.4541   -1.3518 C   0  0  0  0  0  0  0  0  0  0  0  0
   -1.5921   -0.5424    0.8418 C   0  0  0  0  0  0  0  0  0  0  0  0
    3.0015   -1.6424    1.1249 C   0  0  0  0  0  0  0  0  0  0  0  0
    2.5189   -2.7140   -0.7393 C   0  0  0  0  0  0  0  0  0  0  0  0
   -3.8075    0.1049   -0.0127 C   0  0  0  0  0  0  0  0  0  0  0  0
    4.6260    2.2954   -0.6521 C   0  0  0  0  0  0  0  0  0  0  0  0
    3.0438    2.8475    1.0883 C   0  0  0  0  0  0  0  0  0  0  0  0
    3.3972   -2.9580    1.1841 C   0  0  0  0  0  0  0  0  0  0  0  0
    4.2173    3.1291    0.3887 C   0  0  0  0  0  0  0  0  0  0  0  0
   -4.3663    1.2512    0.5530 C   0  0  0  0  0  0  0  0  0  0  0  0
   -4.6314   -0.9439   -0.4211 C   0  0  0  0  0  0  0  0  0  0  0  0
   -5.7488    1.3482    0.7105 C   0  0  0  0  0  0  0  0  0  0  0  0
   -6.0140   -0.8466   -0.2636 C   0  0  0  0  0  0  0  0  0  0  0  0
   -6.5726    0.2994    0.3022 C   0  0  0  0  0  0  0  0  0  0  0  0
    2.0323   -0.4351   -1.7415 H   0  0  0  0  0  0  0  0  0  0  0  0
    0.0652    0.7133   -2.4299 H   0  0  0  0  0  0  0  0  0  0  0  0
    0.3642   -1.0557    1.5056 H   0  0  0  0  0  0  0  0  0  0  0  0
    4.1862    0.5346   -1.8033 H   0  0  0  0  0  0  0  0  0  0  0  0
    1.3800    1.5343    1.3183 H   0  0  0  0  0  0  0  0  0  0  0  0
   -2.3662    0.8836   -2.1549 H   0  0  0  0  0  0  0  0  0  0  0  0
   -2.0448   -0.8941    1.7660 H   0  0  0  0  0  0  0  0  0  0  0  0
    3.0691   -0.8438    1.8499 H   0  0  0  0  0  0  0  0  0  0  0  0
    2.1430   -2.8813   -1.7395 H   0  0  0  0  0  0  0  0  0  0  0  0
    5.5402    2.5143   -1.1962 H   0  0  0  0  0  0  0  0  0  0  0  0
    2.7277    3.4952    1.9008 H   0  0  0  0  0  0  0  0  0  0  0  0
    3.8822   -3.4631    2.0067 H   0  0  0  0  0  0  0  0  0  0  0  0
    4.8133    3.9970    0.6552 H   0  0  0  0  0  0  0  0  0  0  0  0
   -3.7386    2.0781    0.8766 H   0  0  0  0  0  0  0  0  0  0  0  0
   -4.2124   -1.8443   -0.8640 H   0  0  0  0  0  0  0  0  0  0  0  0
   -6.1841    2.2405    1.1510 H   0  0  0  0  0  0  0  0  0  0  0  0
   -6.6557   -1.6632   -0.5815 H   0  0  0  0  0  0  0  0  0  0  0  0
   -7.6491    0.3751    0.4247 H   0  0  0  0  0  0  0  0  0  0  0  0
  1  3  1  0  0  0  0
  1 13  1  0  0  0  0
  1 14  1  0  0  0  0
  2 14  2  0  0  0  0
  2 18  1  0  0  0  0
  3  4  1  0  0  0  0
  3  5  1  0  0  0  0
  3 25  1  0  0  0  0
  4  6  2  0  0  0  0
  4  7  1  0  0  0  0
  5  9  2  0  0  0  0
  5 10  1  0  0  0  0
  6 11  1  0  0  0  0
  6 26  1  0  0  0  0
  7 12  2  0  0  0  0
  7 27  1  0  0  0  0
  8 11  2  0  0  0  0
  8 12  1  0  0  0  0
  8 15  1  0  0  0  0
  9 16  1  0  0  0  0
  9 28  1  0  0  0  0
 10 17  2  0  0  0  0
 10 29  1  0  0  0  0
 11 30  1  0  0  0  0
 12 31  1  0  0  0  0
 13 18  2  0  0  0  0
 13 32  1  0  0  0  0
 14 33  1  0  0  0  0
 15 20  2  0  0  0  0
 15 21  1  0  0  0  0
 16 19  2  0  0  0  0
 16 34  1  0  0  0  0
 17 19  1  0  0  0  0
 17 35  1  0  0  0  0
 18 36  1  0  0  0  0
 19 37  1  0  0  0  0
 20 22  1  0  0  0  0
 20 38  1  0  0  0  0
 21 23  2  0  0  0  0
 21 39  1  0  0  0  0
 22 24  2  0  0  0  0
 22 40  1  0  0  0  0
 23 24  1  0  0  0  0
 23 41  1  0  0  0  0
 24 42  1  0  0  0  0
M  END
> <DATABASE_ID>
DB04794

> <DATABASE_NAME>
drugbank

> <ORIGINAL_SOURCE>
PUBCHEM

> <ORIGINAL_SOURCE_URL>
https://pubchem.ncbi.nlm.nih.gov/rest/pug/compound/inchikey/OCAPBUJLXMYKEJ-UHFFFAOYSA-N/SDF?record_type=3d

> <SMILES>
C1=CN(C=N1)C(C1=CC=CC=C1)C1=CC=C(C=C1)C1=CC=CC=C1

> <INCHI_IDENTIFIER>
InChI=1S/C22H18N2/c1-3-7-18(8-4-1)19-11-13-21(14-12-19)22(24-16-15-23-17-24)20-9-5-2-6-10-20/h1-17,22H

> <INCHI_KEY>
OCAPBUJLXMYKEJ-UHFFFAOYSA-N

> <FORMULA>
C22H18N2

> <MOLECULAR_WEIGHT>
310.3917

> <EXACT_MASS>
310.146998586

> <JCHEM_ACCEPTOR_COUNT>
1

> <JCHEM_AVERAGE_POLARIZABILITY>
35.40575524517509

> <JCHEM_BIOAVAILABILITY>
1

> <JCHEM_DONOR_COUNT>
0

> <JCHEM_FORMAL_CHARGE>
0

> <JCHEM_GHOSE_FILTER>
1

> <JCHEM_IUPAC>
1-[phenyl(4-phenylphenyl)methyl]-1H-imidazole

> <ALOGPS_LOGP>
4.92

> <JCHEM_LOGP>
5.234390525333334

> <ALOGPS_LOGS>
-5.10

> <JCHEM_MDDR_LIKE_RULE>
0

> <JCHEM_NUMBER_OF_RINGS>
4

> <JCHEM_PHYSIOLOGICAL_CHARGE>
0

> <JCHEM_PKA_STRONGEST_BASIC>
6.6853126840627946

> <JCHEM_POLAR_SURFACE_AREA>
17.82

> <JCHEM_REFRACTIVITY>
97.94110000000002

> <JCHEM_ROTATABLE_BOND_COUNT>
4

> <JCHEM_RULE_OF_FIVE>
0

> <ALOGPS_SOLUBILITY>
2.45e-03 g/l

> <JCHEM_TRADITIONAL_IUPAC>
bifonazole

> <JCHEM_VEBER_RULE>
1

$$$$
159326
  -OEChem-01102015193D

 49 52  0     0  0  0  0  0  0999 V2000
    1.9945    2.8363    2.1591 S   0  0  0  0  0  0  0  0  0  0  0  0
   -0.9791   -0.0178   -0.6844 O   0  0  0  0  0  0  0  0  0  0  0  0
    4.9275   -0.6387    0.3403 N   0  0  0  0  0  0  0  0  0  0  0  0
    2.8525   -0.5637   -0.8389 N   0  0  0  0  0  0  0  0  0  0  0  0
    3.3207    0.8838    0.9325 N   0  0  0  0  0  0  0  0  0  0  0  0
    1.1416    1.4087    0.1800 N   0  0  0  0  0  0  0  0  0  0  0  0
    4.3408   -2.5600   -0.9794 C   0  0  0  0  0  0  0  0  0  0  0  0
    5.4880   -1.7310   -0.4206 C   0  0  0  0  0  0  0  0  0  0  0  0
    3.3505   -1.6490   -1.6996 C   0  0  0  0  0  0  0  0  0  0  0  0
    3.6661   -0.1381    0.0832 C   0  0  0  0  0  0  0  0  0  0  0  0
   -1.1035    2.3339   -0.1990 C   0  0  0  0  0  0  0  0  0  0  0  0
    0.1429    2.3039    0.5105 C   0  0  0  0  0  0  0  0  0  0  0  0
   -1.6312    1.1765   -0.7762 C   0  0  0  0  0  0  0  0  0  0  0  0
    2.1694    1.5953    0.9830 C   0  0  0  0  0  0  0  0  0  0  0  0
   -1.6385   -1.0617   -0.0602 C   0  0  0  0  0  0  0  0  0  0  0  0
   -1.8992   -2.2303   -0.7551 C   0  0  0  0  0  0  0  0  0  0  0  0
   -2.9565   -3.1319    1.2214 C   0  0  0  0  0  0  0  0  0  0  0  0
   -2.5632   -3.2734   -0.1094 C   0  0  0  0  0  0  0  0  0  0  0  0
   -1.7957    3.5417   -0.3116 C   0  0  0  0  0  0  0  0  0  0  0  0
   -2.0219   -0.9045    1.2611 C   0  0  0  0  0  0  0  0  0  0  0  0
    0.4213    3.1581    1.5569 C   0  0  0  0  0  0  0  0  0  0  0  0
   -2.8448    1.2269   -1.4622 C   0  0  0  0  0  0  0  0  0  0  0  0
   -2.6859   -1.9476    1.9066 C   0  0  0  0  0  0  0  0  0  0  0  0
   -1.4869   -2.3978   -2.1802 C   0  0  0  0  0  0  0  0  0  0  0  0
   -3.0093    3.5920   -0.9977 C   0  0  0  0  0  0  0  0  0  0  0  0
   -3.5337    2.4348   -1.5730 C   0  0  0  0  0  0  0  0  0  0  0  0
   -3.6662   -4.2465    1.9129 C   0  0  0  0  0  0  0  0  0  0  0  0
    3.8272   -3.0786   -0.1597 H   0  0  0  0  0  0  0  0  0  0  0  0
    4.7226   -3.3251   -1.6636 H   0  0  0  0  0  0  0  0  0  0  0  0
    6.1313   -2.3447    0.2176 H   0  0  0  0  0  0  0  0  0  0  0  0
    6.1019   -1.3294   -1.2340 H   0  0  0  0  0  0  0  0  0  0  0  0
    3.8068   -1.2125   -2.5956 H   0  0  0  0  0  0  0  0  0  0  0  0
    2.4935   -2.2454   -2.0312 H   0  0  0  0  0  0  0  0  0  0  0  0
    5.5087   -0.2163    1.0577 H   0  0  0  0  0  0  0  0  0  0  0  0
    4.0295    1.1375    1.6174 H   0  0  0  0  0  0  0  0  0  0  0  0
   -2.7791   -4.1971   -0.6411 H   0  0  0  0  0  0  0  0  0  0  0  0
   -1.4133    4.4703    0.1043 H   0  0  0  0  0  0  0  0  0  0  0  0
   -1.8086    0.0065    1.8122 H   0  0  0  0  0  0  0  0  0  0  0  0
   -0.1878    3.9276    2.0106 H   0  0  0  0  0  0  0  0  0  0  0  0
   -3.2667    0.3402   -1.9268 H   0  0  0  0  0  0  0  0  0  0  0  0
   -2.9864   -1.8254    2.9439 H   0  0  0  0  0  0  0  0  0  0  0  0
   -2.1002   -1.7661   -2.8303 H   0  0  0  0  0  0  0  0  0  0  0  0
   -0.4329   -2.1300   -2.3104 H   0  0  0  0  0  0  0  0  0  0  0  0
   -1.5983   -3.4342   -2.5166 H   0  0  0  0  0  0  0  0  0  0  0  0
   -3.5437    4.5332   -1.0886 H   0  0  0  0  0  0  0  0  0  0  0  0
   -4.4769    2.4749   -2.1100 H   0  0  0  0  0  0  0  0  0  0  0  0
   -3.3303   -5.2196    1.5389 H   0  0  0  0  0  0  0  0  0  0  0  0
   -3.4705   -4.2331    2.9905 H   0  0  0  0  0  0  0  0  0  0  0  0
   -4.7455   -4.1615    1.7521 H   0  0  0  0  0  0  0  0  0  0  0  0
  1 14  1  0  0  0  0
  1 21  1  0  0  0  0
  2 13  1  0  0  0  0
  2 15  1  0  0  0  0
  3  8  1  0  0  0  0
  3 10  1  0  0  0  0
  3 34  1  0  0  0  0
  4  9  1  0  0  0  0
  4 10  2  0  0  0  0
  5 10  1  0  0  0  0
  5 14  1  0  0  0  0
  5 35  1  0  0  0  0
  6 12  1  0  0  0  0
  6 14  2  0  0  0  0
  7  8  1  0  0  0  0
  7  9  1  0  0  0  0
  7 28  1  0  0  0  0
  7 29  1  0  0  0  0
  8 30  1  0  0  0  0
  8 31  1  0  0  0  0
  9 32  1  0  0  0  0
  9 33  1  0  0  0  0
 11 12  1  0  0  0  0
 11 13  1  0  0  0  0
 11 19  2  0  0  0  0
 12 21  2  0  0  0  0
 13 22  2  0  0  0  0
 15 16  2  0  0  0  0
 15 20  1  0  0  0  0
 16 18  1  0  0  0  0
 16 24  1  0  0  0  0
 17 18  2  0  0  0  0
 17 23  1  0  0  0  0
 17 27  1  0  0  0  0
 18 36  1  0  0  0  0
 19 25  1  0  0  0  0
 19 37  1  0  0  0  0
 20 23  2  0  0  0  0
 20 38  1  0  0  0  0
 21 39  1  0  0  0  0
 22 26  1  0  0  0  0
 22 40  1  0  0  0  0
 23 41  1  0  0  0  0
 24 42  1  0  0  0  0
 24 43  1  0  0  0  0
 24 44  1  0  0  0  0
 25 26  2  0  0  0  0
 25 45  1  0  0  0  0
 26 46  1  0  0  0  0
 27 47  1  0  0  0  0
 27 48  1  0  0  0  0
 27 49  1  0  0  0  0
M  END
> <DATABASE_ID>
DB06395

> <DATABASE_NAME>
drugbank

> <ORIGINAL_SOURCE>
PUBCHEM

> <ORIGINAL_SOURCE_URL>
https://pubchem.ncbi.nlm.nih.gov/rest/pug/compound/inchikey/TYBHXIFFPVFXQW-UHFFFAOYSA-N/SDF?record_type=3d

> <SMILES>
CC1=CC(C)=C(OC2=CC=CC=C2C2=CSC(N=C3NCCCN3)=N2)C=C1

> <INCHI_IDENTIFIER>
InChI=1S/C21H22N4OS/c1-14-8-9-18(15(2)12-14)26-19-7-4-3-6-16(19)17-13-27-21(24-17)25-20-22-10-5-11-23-20/h3-4,6-9,12-13H,5,10-11H2,1-2H3,(H2,22,23,24,25)

> <INCHI_KEY>
TYBHXIFFPVFXQW-UHFFFAOYSA-N

> <FORMULA>
C21H22N4OS

> <MOLECULAR_WEIGHT>
378.49

> <EXACT_MASS>
378.151432518

> <JCHEM_ACCEPTOR_COUNT>
4

> <JCHEM_ATOM_COUNT>
49

> <JCHEM_AVERAGE_NEUTRAL_MICROSPECIES_CHARGE>
1.0003839030464958

> <JCHEM_AVERAGE_POLARIZABILITY>
41.124793549551676

> <JCHEM_BIOAVAILABILITY>
1

> <JCHEM_DONOR_COUNT>
2

> <JCHEM_FORMAL_CHARGE>
0

> <JCHEM_GHOSE_FILTER>
1

> <JCHEM_IUPAC>
N-{4-[2-(2,4-dimethylphenoxy)phenyl]-1,3-thiazol-2-yl}-1,3-diazinan-2-imine

> <ALOGPS_LOGP>
4.55

> <JCHEM_LOGP>
4.792493401333333

> <ALOGPS_LOGS>
-5.03

> <JCHEM_MDDR_LIKE_RULE>
0

> <JCHEM_NEUTRAL_CHARGE>
0

> <JCHEM_NUMBER_OF_RINGS>
4

> <JCHEM_PHYSIOLOGICAL_CHARGE>
0

> <JCHEM_PKA>
19.85894829313454

> <JCHEM_PKA_STRONGEST_ACIDIC>
19.85894829313453

> <JCHEM_PKA_STRONGEST_BASIC>
6.543313980558725

> <JCHEM_POLAR_SURFACE_AREA>
58.540000000000006

> <JCHEM_REFRACTIVITY>
110.3471

> <JCHEM_ROTATABLE_BOND_COUNT>
4

> <JCHEM_RULE_OF_FIVE>
1

> <ALOGPS_SOLUBILITY>
3.54e-03 g/l

> <JCHEM_TRADITIONAL_IUPAC>
N-{4-[2-(2,4-dimethylphenoxy)phenyl]-1,3-thiazol-2-yl}-1,3-diazinan-2-imine

> <JCHEM_VEBER_RULE>
0

$$$$
467825
  -OEChem-10061700063D

 48 51  0     1  0  0  0  0  0999 V2000
    0.8506   -1.9272    2.4545 S   0  0  0  0  0  0  0  0  0  0  0  0
   -3.5859   -1.2507    1.7051 F   0  0  0  0  0  0  0  0  0  0  0  0
   -6.9382   -1.0268   -1.6267 F   0  0  0  0  0  0  0  0  0  0  0  0
   -0.8438    0.2885   -1.1325 O   0  0  0  0  0  0  0  0  0  0  0  0
   -2.0287    2.0951    0.8401 N   0  0  0  0  0  0  0  0  0  0  0  0
    1.4536   -1.0213    0.1096 N   0  0  0  0  0  0  0  0  0  0  0  0
   -1.2140    3.0242    0.3521 N   0  0  0  0  0  0  0  0  0  0  0  0
   -3.3516    3.7904    0.6283 N   0  0  0  0  0  0  0  0  0  0  0  0
    8.5481    1.1486   -1.6781 N   0  0  0  0  0  0  0  0  0  0  0  0
   -1.5983   -0.2664   -0.0460 C   0  0  1  0  0  0  0  0  0  0  0  0
   -0.9280   -1.6365    0.3681 C   0  0  1  0  0  0  0  0  0  0  0  0
   -1.5148    0.7537    1.1347 C   0  0  0  0  0  0  0  0  0  0  0  0
   -3.0586   -0.4760   -0.4760 C   0  0  0  0  0  0  0  0  0  0  0  0
   -0.9887   -2.7184   -0.7253 C   0  0  0  0  0  0  0  0  0  0  0  0
    0.5189   -1.4768    0.8611 C   0  0  0  0  0  0  0  0  0  0  0  0
   -3.9509   -0.9594    0.4486 C   0  0  0  0  0  0  0  0  0  0  0  0
   -3.4057   -0.1686   -1.7684 C   0  0  0  0  0  0  0  0  0  0  0  0
    2.6069   -1.0144    0.8697 C   0  0  0  0  0  0  0  0  0  0  0  0
   -5.2758   -1.1480    0.0555 C   0  0  0  0  0  0  0  0  0  0  0  0
   -4.7305   -0.3573   -2.1615 C   0  0  0  0  0  0  0  0  0  0  0  0
   -3.2882    2.5349    1.0067 C   0  0  0  0  0  0  0  0  0  0  0  0
    2.4778   -1.4694    2.1651 C   0  0  0  0  0  0  0  0  0  0  0  0
   -5.6657   -0.8469   -1.2496 C   0  0  0  0  0  0  0  0  0  0  0  0
    3.8570   -0.5587    0.3333 C   0  0  0  0  0  0  0  0  0  0  0  0
   -2.0675    4.0440    0.2389 C   0  0  0  0  0  0  0  0  0  0  0  0
    4.8058    0.0270    1.1728 C   0  0  0  0  0  0  0  0  0  0  0  0
    4.1268   -0.7012   -1.0286 C   0  0  0  0  0  0  0  0  0  0  0  0
    6.0215    0.4696    0.6514 C   0  0  0  0  0  0  0  0  0  0  0  0
    5.3426   -0.2587   -1.5498 C   0  0  0  0  0  0  0  0  0  0  0  0
    6.2899    0.3267   -0.7097 C   0  0  0  0  0  0  0  0  0  0  0  0
    7.5354    0.7799   -1.2437 C   0  0  0  0  0  0  0  0  0  0  0  0
   -1.5083   -2.0475    1.2050 H   0  0  0  0  0  0  0  0  0  0  0  0
   -0.4694    0.9224    1.4223 H   0  0  0  0  0  0  0  0  0  0  0  0
   -2.0378    0.4087    2.0329 H   0  0  0  0  0  0  0  0  0  0  0  0
   -0.4714   -2.3926   -1.6344 H   0  0  0  0  0  0  0  0  0  0  0  0
   -2.0198   -2.9693   -0.9909 H   0  0  0  0  0  0  0  0  0  0  0  0
   -0.5053   -3.6417   -0.3857 H   0  0  0  0  0  0  0  0  0  0  0  0
   -1.1232    1.2073   -1.2804 H   0  0  0  0  0  0  0  0  0  0  0  0
   -2.7100    0.2064   -2.5101 H   0  0  0  0  0  0  0  0  0  0  0  0
   -6.0039   -1.5286    0.7655 H   0  0  0  0  0  0  0  0  0  0  0  0
   -5.0347   -0.1246   -3.1777 H   0  0  0  0  0  0  0  0  0  0  0  0
   -4.1031    1.9431    1.3982 H   0  0  0  0  0  0  0  0  0  0  0  0
    3.2201   -1.5737    2.9444 H   0  0  0  0  0  0  0  0  0  0  0  0
   -1.7438    5.0019   -0.1400 H   0  0  0  0  0  0  0  0  0  0  0  0
    4.6266    0.1719    2.2351 H   0  0  0  0  0  0  0  0  0  0  0  0
    3.4062   -1.1586   -1.7025 H   0  0  0  0  0  0  0  0  0  0  0  0
    6.7486    0.9275    1.3179 H   0  0  0  0  0  0  0  0  0  0  0  0
    5.5379   -0.3779   -2.6129 H   0  0  0  0  0  0  0  0  0  0  0  0
  1 15  1  0  0  0  0
  1 22  1  0  0  0  0
  2 16  1  0  0  0  0
  3 23  1  0  0  0  0
  4 10  1  0  0  0  0
  4 38  1  0  0  0  0
  5  7  1  0  0  0  0
  5 12  1  0  0  0  0
  5 21  1  0  0  0  0
  6 15  2  0  0  0  0
  6 18  1  0  0  0  0
  7 25  2  0  0  0  0
  8 21  2  0  0  0  0
  8 25  1  0  0  0  0
  9 31  3  0  0  0  0
 10 11  1  0  0  0  0
 10 12  1  0  0  0  0
 10 13  1  0  0  0  0
 11 14  1  0  0  0  0
 11 15  1  0  0  0  0
 11 32  1  0  0  0  0
 12 33  1  0  0  0  0
 12 34  1  0  0  0  0
 13 16  2  0  0  0  0
 13 17  1  0  0  0  0
 14 35  1  0  0  0  0
 14 36  1  0  0  0  0
 14 37  1  0  0  0  0
 16 19  1  0  0  0  0
 17 20  2  0  0  0  0
 17 39  1  0  0  0  0
 18 22  2  0  0  0  0
 18 24  1  0  0  0  0
 19 23  2  0  0  0  0
 19 40  1  0  0  0  0
 20 23  1  0  0  0  0
 20 41  1  0  0  0  0
 21 42  1  0  0  0  0
 22 43  1  0  0  0  0
 24 26  2  0  0  0  0
 24 27  1  0  0  0  0
 25 44  1  0  0  0  0
 26 28  1  0  0  0  0
 26 45  1  0  0  0  0
 27 29  2  0  0  0  0
 27 46  1  0  0  0  0
 28 30  2  0  0  0  0
 28 47  1  0  0  0  0
 29 30  1  0  0  0  0
 29 48  1  0  0  0  0
 30 31  1  0  0  0  0
M  END
> <DATABASE_ID>
DB06440

> <DATABASE_NAME>
drugbank

> <ORIGINAL_SOURCE>
PUBCHEM

> <ORIGINAL_SOURCE_URL>
https://pubchem.ncbi.nlm.nih.gov/rest/pug/compound/inchikey/OPAHEYNNJWPQPX-RCDICMHDSA-N/SDF?record_type=3d

> <SMILES>
C[C@@H](C1=NC(=CS1)C1=CC=C(C=C1)C#N)[C@](O)(CN1C=NC=N1)C1=CC=C(F)C=C1F

> <INCHI_IDENTIFIER>
InChI=1S/C22H17F2N5OS/c1-14(21-28-20(10-31-21)16-4-2-15(9-25)3-5-16)22(30,11-29-13-26-12-27-29)18-7-6-17(23)8-19(18)24/h2-8,10,12-14,30H,11H2,1H3/t14-,22+/m0/s1

> <INCHI_KEY>
OPAHEYNNJWPQPX-RCDICMHDSA-N

> <FORMULA>
C22H17F2N5OS

> <MOLECULAR_WEIGHT>
437.47

> <EXACT_MASS>
437.112187687

> <JCHEM_ACCEPTOR_COUNT>
5

> <JCHEM_ATOM_COUNT>
48

> <JCHEM_AVERAGE_POLARIZABILITY>
43.06760041382108

> <JCHEM_BIOAVAILABILITY>
1

> <JCHEM_DONOR_COUNT>
1

> <JCHEM_FORMAL_CHARGE>
0

> <JCHEM_GHOSE_FILTER>
1

> <JCHEM_IUPAC>
4-{2-[(2R,3R)-3-(2,4-difluorophenyl)-3-hydroxy-4-(1H-1,2,4-triazol-1-yl)butan-2-yl]-1,3-thiazol-4-yl}benzonitrile

> <ALOGPS_LOGP>
3.48

> <JCHEM_LOGP>
4.143500234

> <ALOGPS_LOGS>
-4.44

> <JCHEM_MDDR_LIKE_RULE>
1

> <JCHEM_NUMBER_OF_RINGS>
4

> <JCHEM_PHYSIOLOGICAL_CHARGE>
0

> <JCHEM_PKA_STRONGEST_ACIDIC>
12.683221737543231

> <JCHEM_PKA_STRONGEST_BASIC>
2.4614978635511213

> <JCHEM_POLAR_SURFACE_AREA>
87.62

> <JCHEM_REFRACTIVITY>
123.94069999999999

> <JCHEM_ROTATABLE_BOND_COUNT>
6

> <JCHEM_RULE_OF_FIVE>
1

> <ALOGPS_SOLUBILITY>
1.58e-02 g/l

> <JCHEM_TRADITIONAL_IUPAC>
ravuconazole

> <JCHEM_VEBER_RULE>
0

$$$$

  Mrv1572004051615542D          

 53 57  0  0  0  0            999 V2000
   -3.3402   -3.6085    0.0000 C   0  0  0  0  0  0  0  0  0  0  0  0
    0.9040   -1.7652    0.0000 C   0  0  0  0  0  0  0  0  0  0  0  0
    3.3790    5.3794    0.0000 C   0  0  0  0  0  0  0  0  0  0  0  0
    1.7290    1.0926    0.0000 C   0  0  0  0  0  0  0  0  0  0  0  0
    4.6165    0.3781    0.0000 C   0  0  0  0  0  0  0  0  0  0  0  0
    4.2040    1.0926    0.0000 C   0  0  0  0  0  0  0  0  0  0  0  0
   -4.6165    1.1445    0.0000 C   0  0  0  0  0  0  0  0  0  0  0  0
   -3.1876    1.1445    0.0000 C   0  0  0  0  0  0  0  0  0  0  0  0
   -4.6165    0.3195    0.0000 C   0  0  0  0  0  0  0  0  0  0  0  0
   -3.1876    0.3195    0.0000 C   0  0  0  0  0  0  0  0  0  0  0  0
   -1.9254   -5.2301    0.0000 C   0  0  0  0  0  0  0  0  0  0  0  0
   -1.2580   -4.7451    0.0000 C   0  0  0  0  0  0  0  0  0  0  0  0
    4.2040   -0.3362    0.0000 C   0  0  0  0  0  0  0  0  0  0  0  0
   -2.7653   -4.0740    0.0000 C   0  0  0  0  0  0  0  0  0  0  0  0
   -3.9020    2.3820    0.0000 C   0  0  0  0  0  0  0  0  0  0  0  0
    3.3790    3.9505    0.0000 C   0  0  0  0  0  0  0  0  0  0  0  0
    2.9665    1.8071    0.0000 C   0  0  0  0  0  0  0  0  0  0  0  0
   -4.5695   -1.4028    0.0000 C   0  0  0  0  0  0  0  0  0  0  0  0
   -2.2704   -1.9481    0.0000 C   0  0  0  0  0  0  0  0  0  0  0  0
   -0.8183   -0.3833    0.0000 C   0  0  0  0  0  0  0  0  0  0  0  0
   -0.8183   -1.7182    0.0000 C   0  0  0  0  0  0  0  0  0  0  0  0
   -3.0046   -2.8549    0.0000 C   0  0  1  0  0  0  0  0  0  0  0  0
    0.4915   -1.0507    0.0000 C   0  0  0  0  0  0  0  0  0  0  0  0
   -3.9020    1.5570    0.0000 C   0  0  0  0  0  0  0  0  0  0  0  0
   -3.9020   -0.0929    0.0000 C   0  0  0  0  0  0  0  0  0  0  0  0
    3.3790    1.0926    0.0000 C   0  0  0  0  0  0  0  0  0  0  0  0
   -2.6791   -4.8945    0.0000 C   0  0  0  0  0  0  0  0  0  0  0  0
   -2.0979   -3.5891    0.0000 C   0  0  0  0  0  0  0  0  0  0  0  0
   -1.3442   -3.9247    0.0000 C   0  0  0  0  0  0  0  0  0  0  0  0
   -3.9020   -0.9179    0.0000 C   0  0  0  0  0  0  0  0  0  0  0  0
    2.9665    3.2360    0.0000 C   0  0  0  0  0  0  0  0  0  0  0  0
    2.9665    0.3781    0.0000 C   0  0  0  0  0  0  0  0  0  0  0  0
   -3.4895   -2.1874    0.0000 C   0  0  0  0  0  0  0  0  0  0  0  0
    1.7290   -0.3362    0.0000 C   0  0  0  0  0  0  0  0  0  0  0  0
   -2.1841   -2.7686    0.0000 C   0  0  1  0  0  0  0  0  0  0  0  0
   -3.3465   -5.3794    0.0000 F   0  0  0  0  0  0  0  0  0  0  0  0
   -0.6768   -3.4397    0.0000 F   0  0  0  0  0  0  0  0  0  0  0  0
   -3.9020    3.2070    0.0000 N   0  0  0  0  0  0  0  0  0  0  0  0
    2.9665    4.6650    0.0000 N   0  0  0  0  0  0  0  0  0  0  0  0
    3.3790   -0.3362    0.0000 N   0  0  0  0  0  0  0  0  0  0  0  0
   -1.6029   -0.6382    0.0000 N   0  0  0  0  0  0  0  0  0  0  0  0
   -3.2346   -1.4028    0.0000 N   0  0  0  0  0  0  0  0  0  0  0  0
    2.1415    0.3781    0.0000 N   0  0  0  0  0  0  0  0  0  0  0  0
   -0.3334   -1.0507    0.0000 N   0  3  0  0  0  0  0  0  0  0  0  0
   -1.6029   -1.4632    0.0000 N   0  0  0  0  0  0  0  0  0  0  0  0
    2.1415    3.2360    0.0000 O   0  0  0  0  0  0  0  0  0  0  0  0
    2.1415   -1.0507    0.0000 O   0  0  0  0  0  0  0  0  0  0  0  0
   -1.3637   -2.6824    0.0000 O   0  0  0  0  0  0  0  0  0  0  0  0
    3.3790    2.5215    0.0000 O   0  0  0  0  0  0  0  0  0  0  0  0
    0.9040   -0.3362    0.0000 O   0  0  0  0  0  0  0  0  0  0  0  0
   -4.3145   -2.1874    0.0000 S   0  0  0  0  0  0  0  0  0  0  0  0
   -3.8251   -2.9411    0.0000 H   0  0  0  0  0  0  0  0  0  0  0  0
    0.0790   -1.7652    0.0000 H   0  0  0  0  0  0  0  0  0  0  0  0
  6  5  2  0  0  0  0
  9  7  1  0  0  0  0
 10  8  2  0  0  0  0
 12 11  2  0  0  0  0
 13  5  1  0  0  0  0
 22  1  1  1  0  0  0
 23  2  1  0  0  0  0
 24  7  2  0  0  0  0
 24  8  1  0  0  0  0
 24 15  1  0  0  0  0
 25  9  2  0  0  0  0
 25 10  1  0  0  0  0
 26  6  1  0  0  0  0
 26 17  1  0  0  0  0
 27 11  1  0  0  0  0
 27 14  2  0  0  0  0
 28 14  1  0  0  0  0
 29 12  1  0  0  0  0
 29 28  2  0  0  0  0
 30 18  2  0  0  0  0
 30 25  1  0  0  0  0
 31 16  1  0  0  0  0
 32 26  2  0  0  0  0
 33 22  1  0  0  0  0
 35 19  1  0  0  0  0
 35 22  1  0  0  0  0
 35 28  1  6  0  0  0
 36 27  1  0  0  0  0
 37 29  1  0  0  0  0
 38 15  3  0  0  0  0
 39  3  1  0  0  0  0
 39 16  1  0  0  0  0
 40 13  2  0  0  0  0
 40 32  1  0  0  0  0
 41 20  2  0  0  0  0
 42 30  1  0  0  0  0
 42 33  2  0  0  0  0
 43  4  1  0  0  0  0
 43 32  1  0  0  0  0
 43 34  1  0  0  0  0
 44 20  1  0  0  0  0
 44 21  2  0  0  0  0
 44 23  1  0  0  0  0
 45 19  1  0  0  0  0
 45 21  1  0  0  0  0
 45 41  1  0  0  0  0
 46 31  2  0  0  0  0
 47 34  2  0  0  0  0
 35 48  1  1  0  0  0
 49 17  1  0  0  0  0
 49 31  1  0  0  0  0
 50 23  1  0  0  0  0
 50 34  1  0  0  0  0
 51 18  1  0  0  0  0
 51 33  1  0  0  0  0
 22 52  1  6  0  0  0
 53 23  1  0  0  0  0
M  CHG  1  44   1
M  END
> <DATABASE_ID>
DB06636

> <DATABASE_NAME>
drugbank

> <SMILES>
[H]C(C)(OC(=O)N(C)C1=C(COC(=O)CNC)C=CC=N1)[N+]1=CN(C[C@](O)(C2=C(F)C=CC(F)=C2)[C@@]([H])(C)C2=NC(=CS2)C2=CC=C(C=C2)C#N)N=C1

> <INCHI_IDENTIFIER>
InChI=1S/C35H35F2N8O5S/c1-22(33-42-30(18-51-33)25-9-7-24(15-38)8-10-25)35(48,28-14-27(36)11-12-29(28)37)19-45-21-44(20-41-45)23(2)50-34(47)43(4)32-26(6-5-13-40-32)17-49-31(46)16-39-3/h5-14,18,20-23,39,48H,16-17,19H2,1-4H3/q+1/t22-,23?,35+/m0/s1

> <INCHI_KEY>
RSWOJTICKMKTER-QXLBVTBOSA-N

> <FORMULA>
C35H35F2N8O5S

> <MOLECULAR_WEIGHT>
717.77

> <EXACT_MASS>
717.241370179

> <JCHEM_ACCEPTOR_COUNT>
9

> <JCHEM_ATOM_COUNT>
86

> <JCHEM_AVERAGE_POLARIZABILITY>
71.63137555841584

> <JCHEM_BIOAVAILABILITY>
0

> <JCHEM_DONOR_COUNT>
2

> <JCHEM_FORMAL_CHARGE>
1

> <JCHEM_GHOSE_FILTER>
0

> <JCHEM_IUPAC>
1-[(2R,3R)-3-[4-(4-cyanophenyl)-1,3-thiazol-2-yl]-2-(2,5-difluorophenyl)-2-hydroxybutyl]-4-[1-({methyl[3-({[2-(methylamino)acetyl]oxy}methyl)pyridin-2-yl]carbamoyl}oxy)ethyl]-1H-1,2,4-triazol-4-ium

> <ALOGPS_LOGP>
1.73

> <JCHEM_LOGP>
0.5240892791949233

> <ALOGPS_LOGS>
-5.16

> <JCHEM_MDDR_LIKE_RULE>
1

> <JCHEM_NUMBER_OF_RINGS>
5

> <JCHEM_PHYSIOLOGICAL_CHARGE>
1

> <JCHEM_PKA>
14.153925618665252

> <JCHEM_PKA_STRONGEST_ACIDIC>
12.574153445572495

> <JCHEM_PKA_STRONGEST_BASIC>
6.447909071606407

> <JCHEM_POLAR_SURFACE_AREA>
159.36999999999995

> <JCHEM_REFRACTIVITY>
193.86029999999997

> <JCHEM_ROTATABLE_BOND_COUNT>
15

> <JCHEM_RULE_OF_FIVE>
0

> <ALOGPS_SOLUBILITY>
5.16e-03 g/l

> <JCHEM_TRADITIONAL_IUPAC>
1-[(2R,3R)-3-[4-(4-cyanophenyl)-1,3-thiazol-2-yl]-2-(2,5-difluorophenyl)-2-hydroxybutyl]-4-[1-({methyl[3-({[2-(methylamino)acetyl]oxy}methyl)pyridin-2-yl]carbamoyl}oxy)ethyl]-1,2,4-triazol-4-ium

> <JCHEM_VEBER_RULE>
0

> <DRUGBANK_ID>
DB06636

> <DRUG_GROUPS>
approved; investigational

> <GENERIC_NAME>
Isavuconazonium

> <SYNONYMS>
Isavuconazonium

> <PRODUCTS>
Cresemba

> <SALTS>
Isavuconazonium sulfate

$$$$
64715
  -OEChem-10051720503D

 62 64  0     1  0  0  0  0  0999 V2000
   -2.2403    0.7906    0.1250 O   0  0  0  0  0  0  0  0  0  0  0  0
    3.6547   -0.2516    0.7335 O   0  0  0  0  0  0  0  0  0  0  0  0
    5.0332    2.6904   -0.2638 O   0  0  0  0  0  0  0  0  0  0  0  0
   -2.4253    2.5118    1.6499 O   0  0  0  0  0  0  0  0  0  0  0  0
    5.1915   -0.4088    2.3695 O   0  0  0  0  0  0  0  0  0  0  0  0
   -0.2856   -1.3345   -0.4939 C   0  0  2  0  0  0  0  0  0  0  0  0
   -1.4547   -1.5092    0.5196 C   0  0  1  0  0  0  0  0  0  0  0  0
    0.1789   -2.7094   -1.0588 C   0  0  2  0  0  0  0  0  0  0  0  0
   -1.9424   -0.1744    1.1334 C   0  0  2  0  0  0  0  0  0  0  0  0
    0.8948   -0.5473    0.0897 C   0  0  0  0  0  0  0  0  0  0  0  0
   -2.6031   -2.2908   -0.1157 C   0  0  0  0  0  0  0  0  0  0  0  0
   -3.2088   -0.3864    1.9643 C   0  0  0  0  0  0  0  0  0  0  0  0
    1.9690   -0.3141   -0.9633 C   0  0  0  0  0  0  0  0  0  0  0  0
   -0.9998   -3.5481   -1.4826 C   0  0  0  0  0  0  0  0  0  0  0  0
   -4.3449   -0.9733    1.1273 C   0  0  0  0  0  0  0  0  0  0  0  0
   -2.2531   -3.3356   -1.0605 C   0  0  0  0  0  0  0  0  0  0  0  0
   -3.8925   -2.0334    0.1691 C   0  0  0  0  0  0  0  0  0  0  0  0
    3.1303    0.4884   -0.3906 C   0  0  2  0  0  0  0  0  0  0  0  0
    1.0533   -3.5306   -0.1049 C   0  0  0  0  0  0  0  0  0  0  0  0
    4.1889    0.7568   -1.4502 C   0  0  0  0  0  0  0  0  0  0  0  0
    5.3900    1.4207   -0.8031 C   0  0  2  0  0  0  0  0  0  0  0  0
   -2.7062    1.9940    0.5766 C   0  0  0  0  0  0  0  0  0  0  0  0
    5.9326    0.5467    0.3109 C   0  0  0  0  0  0  0  0  0  0  0  0
    4.8924   -0.0367    1.2365 C   0  0  0  0  0  0  0  0  0  0  0  0
   -3.6591    2.5907   -0.4453 C   0  0  2  0  0  0  0  0  0  0  0  0
   -2.9174    3.4849   -1.4493 C   0  0  0  0  0  0  0  0  0  0  0  0
   -4.7312    3.3800    0.3008 C   0  0  0  0  0  0  0  0  0  0  0  0
   -1.8452    2.7294   -2.2241 C   0  0  0  0  0  0  0  0  0  0  0  0
   -0.6762   -0.7546   -1.3451 H   0  0  0  0  0  0  0  0  0  0  0  0
   -1.0902   -2.1240    1.3558 H   0  0  0  0  0  0  0  0  0  0  0  0
    0.7550   -2.5275   -1.9748 H   0  0  0  0  0  0  0  0  0  0  0  0
   -1.1580    0.2269    1.7868 H   0  0  0  0  0  0  0  0  0  0  0  0
    0.5522    0.4364    0.4295 H   0  0  0  0  0  0  0  0  0  0  0  0
    1.2933   -1.0545    0.9751 H   0  0  0  0  0  0  0  0  0  0  0  0
   -2.9735   -1.0886    2.7761 H   0  0  0  0  0  0  0  0  0  0  0  0
   -3.5672    0.5213    2.4588 H   0  0  0  0  0  0  0  0  0  0  0  0
    2.3692   -1.2651   -1.3275 H   0  0  0  0  0  0  0  0  0  0  0  0
    1.5406    0.2145   -1.8236 H   0  0  0  0  0  0  0  0  0  0  0  0
   -0.8117   -4.3615   -2.1789 H   0  0  0  0  0  0  0  0  0  0  0  0
   -5.0988   -1.3965    1.8013 H   0  0  0  0  0  0  0  0  0  0  0  0
   -4.8426   -0.1808    0.5573 H   0  0  0  0  0  0  0  0  0  0  0  0
   -3.0478   -3.9723   -1.4399 H   0  0  0  0  0  0  0  0  0  0  0  0
   -4.6831   -2.6010   -0.3168 H   0  0  0  0  0  0  0  0  0  0  0  0
    2.7371    1.4338    0.0028 H   0  0  0  0  0  0  0  0  0  0  0  0
    0.5513   -3.7141    0.8509 H   0  0  0  0  0  0  0  0  0  0  0  0
    1.2910   -4.5082   -0.5415 H   0  0  0  0  0  0  0  0  0  0  0  0
    2.0092   -3.0429    0.1042 H   0  0  0  0  0  0  0  0  0  0  0  0
    4.5079   -0.1822   -1.9191 H   0  0  0  0  0  0  0  0  0  0  0  0
    3.7707    1.4025   -2.2309 H   0  0  0  0  0  0  0  0  0  0  0  0
    6.1687    1.5994   -1.5518 H   0  0  0  0  0  0  0  0  0  0  0  0
    6.6290    1.1290    0.9259 H   0  0  0  0  0  0  0  0  0  0  0  0
    6.4754   -0.3028   -0.1202 H   0  0  0  0  0  0  0  0  0  0  0  0
   -4.1590    1.7697   -0.9746 H   0  0  0  0  0  0  0  0  0  0  0  0
    4.5249    2.5547    0.5530 H   0  0  0  0  0  0  0  0  0  0  0  0
   -3.6381    3.9061   -2.1605 H   0  0  0  0  0  0  0  0  0  0  0  0
   -2.4460    4.3285   -0.9302 H   0  0  0  0  0  0  0  0  0  0  0  0
   -5.2400    2.7489    1.0381 H   0  0  0  0  0  0  0  0  0  0  0  0
   -5.4865    3.7593   -0.3956 H   0  0  0  0  0  0  0  0  0  0  0  0
   -4.3055    4.2369    0.8348 H   0  0  0  0  0  0  0  0  0  0  0  0
   -1.0150    2.4281   -1.5781 H   0  0  0  0  0  0  0  0  0  0  0  0
   -1.4308    3.3714   -3.0083 H   0  0  0  0  0  0  0  0  0  0  0  0
   -2.2586    1.8363   -2.7033 H   0  0  0  0  0  0  0  0  0  0  0  0
  1  9  1  0  0  0  0
  1 22  1  0  0  0  0
  2 18  1  0  0  0  0
  2 24  1  0  0  0  0
  3 21  1  0  0  0  0
  3 54  1  0  0  0  0
  4 22  2  0  0  0  0
  5 24  2  0  0  0  0
  6  7  1  0  0  0  0
  6  8  1  0  0  0  0
  6 10  1  0  0  0  0
  6 29  1  0  0  0  0
  7  9  1  0  0  0  0
  7 11  1  0  0  0  0
  7 30  1  0  0  0  0
  8 14  1  0  0  0  0
  8 19  1  0  0  0  0
  8 31  1  0  0  0  0
  9 12  1  0  0  0  0
  9 32  1  0  0  0  0
 10 13  1  0  0  0  0
 10 33  1  0  0  0  0
 10 34  1  0  0  0  0
 11 16  1  0  0  0  0
 11 17  2  0  0  0  0
 12 15  1  0  0  0  0
 12 35  1  0  0  0  0
 12 36  1  0  0  0  0
 13 18  1  0  0  0  0
 13 37  1  0  0  0  0
 13 38  1  0  0  0  0
 14 16  2  0  0  0  0
 14 39  1  0  0  0  0
 15 17  1  0  0  0  0
 15 40  1  0  0  0  0
 15 41  1  0  0  0  0
 16 42  1  0  0  0  0
 17 43  1  0  0  0  0
 18 20  1  0  0  0  0
 18 44  1  0  0  0  0
 19 45  1  0  0  0  0
 19 46  1  0  0  0  0
 19 47  1  0  0  0  0
 20 21  1  0  0  0  0
 20 48  1  0  0  0  0
 20 49  1  0  0  0  0
 21 23  1  0  0  0  0
 21 50  1  0  0  0  0
 22 25  1  0  0  0  0
 23 24  1  0  0  0  0
 23 51  1  0  0  0  0
 23 52  1  0  0  0  0
 25 26  1  0  0  0  0
 25 27  1  0  0  0  0
 25 53  1  0  0  0  0
 26 28  1  0  0  0  0
 26 55  1  0  0  0  0
 26 56  1  0  0  0  0
 27 57  1  0  0  0  0
 27 58  1  0  0  0  0
 27 59  1  0  0  0  0
 28 60  1  0  0  0  0
 28 61  1  0  0  0  0
 28 62  1  0  0  0  0
M  END
> <DATABASE_ID>
DB06693

> <DATABASE_NAME>
drugbank

> <ORIGINAL_SOURCE>
PUBCHEM

> <ORIGINAL_SOURCE_URL>
https://pubchem.ncbi.nlm.nih.gov/rest/pug/compound/inchikey/AJLFOPYRIVGYMJ-INTXDZFKSA-N/SDF?record_type=3d

> <SMILES>
[H][C@]12[C@H](CCC=C1C=C[C@H](C)[C@@H]2CC[C@@H]1C[C@@H](O)CC(=O)O1)OC(=O)[C@@H](C)CC

> <INCHI_IDENTIFIER>
InChI=1S/C23H34O5/c1-4-14(2)23(26)28-20-7-5-6-16-9-8-15(3)19(22(16)20)11-10-18-12-17(24)13-21(25)27-18/h6,8-9,14-15,17-20,22,24H,4-5,7,10-13H2,1-3H3/t14-,15-,17+,18+,19-,20-,22-/m0/s1

> <INCHI_KEY>
AJLFOPYRIVGYMJ-INTXDZFKSA-N

> <FORMULA>
C23H34O5

> <MOLECULAR_WEIGHT>
390.52

> <EXACT_MASS>
390.240624195

> <JCHEM_ACCEPTOR_COUNT>
3

> <JCHEM_ATOM_COUNT>
62

> <JCHEM_AVERAGE_POLARIZABILITY>
43.57364522635587

> <JCHEM_BIOAVAILABILITY>
1

> <JCHEM_DONOR_COUNT>
1

> <JCHEM_FORMAL_CHARGE>
0

> <JCHEM_GHOSE_FILTER>
1

> <JCHEM_IUPAC>
(1S,7S,8S,8aR)-8-{2-[(2R,4R)-4-hydroxy-6-oxooxan-2-yl]ethyl}-7-methyl-1,2,3,7,8,8a-hexahydronaphthalen-1-yl (2S)-2-methylbutanoate

> <ALOGPS_LOGP>
4.13

> <JCHEM_LOGP>
3.6151678180000006

> <ALOGPS_LOGS>
-4.08

> <JCHEM_MDDR_LIKE_RULE>
1

> <JCHEM_NUMBER_OF_RINGS>
3

> <JCHEM_PHYSIOLOGICAL_CHARGE>
0

> <JCHEM_PKA_STRONGEST_ACIDIC>
14.914537666911102

> <JCHEM_PKA_STRONGEST_BASIC>
-2.8361812244930835

> <JCHEM_POLAR_SURFACE_AREA>
72.83

> <JCHEM_REFRACTIVITY>
108.63379999999998

> <JCHEM_ROTATABLE_BOND_COUNT>
7

> <JCHEM_RULE_OF_FIVE>
1

> <ALOGPS_SOLUBILITY>
3.21e-02 g/l

> <JCHEM_TRADITIONAL_IUPAC>
mevastatin

> <JCHEM_VEBER_RULE>
0

$$$$
6436223
  -OEChem-10051722163D

102103  0     1  0  0  0  0  0999 V2000
   -5.1591    0.1920    0.5541 O   0  0  0  0  0  0  0  0  0  0  0  0
   -6.3627    0.2737   -1.4898 O   0  0  0  0  0  0  0  0  0  0  0  0
   -4.9156   -3.7121   -0.8038 O   0  0  0  0  0  0  0  0  0  0  0  0
   -2.7694    0.9520    0.6335 O   0  0  0  0  0  0  0  0  0  0  0  0
    0.4224    0.7211   -1.3117 O   0  0  0  0  0  0  0  0  0  0  0  0
   -0.0105    4.0405    0.1855 O   0  0  0  0  0  0  0  0  0  0  0  0
   -0.4063   -1.0315   -0.0500 O   0  0  0  0  0  0  0  0  0  0  0  0
    2.2507   -0.8227   -2.4419 O   0  0  0  0  0  0  0  0  0  0  0  0
    6.6906    0.7413   -0.3782 O   0  0  0  0  0  0  0  0  0  0  0  0
   -5.0967    0.0460   -0.8682 C   0  0  1  0  0  0  0  0  0  0  0  0
   -5.6072   -2.1827    0.9453 C   0  0  2  0  0  0  0  0  0  0  0  0
   -6.0482   -0.7276    1.2027 C   0  0  1  0  0  0  0  0  0  0  0  0
   -4.1026    1.0833   -1.3899 C   0  0  2  0  0  0  0  0  0  0  0  0
   -4.6176   -1.3633   -1.2233 C   0  0  0  0  0  0  0  0  0  0  0  0
   -5.4939   -2.4311   -0.5689 C   0  0  1  0  0  0  0  0  0  0  0  0
   -2.6809    0.9296   -0.7943 C   0  0  1  0  0  0  0  0  0  0  0  0
   -6.0385   -0.3582    2.6834 C   0  0  0  0  0  0  0  0  0  0  0  0
   -1.6278    1.9744   -1.2515 C   0  0  1  0  0  0  0  0  0  0  0  0
   -6.5502   -3.2030    1.5909 C   0  0  0  0  0  0  0  0  0  0  0  0
   -4.6542    2.4887   -1.1169 C   0  0  0  0  0  0  0  0  0  0  0  0
   -0.2867    1.7336   -0.5649 C   0  0  2  0  0  0  0  0  0  0  0  0
   -6.5162    1.0789    2.8825 C   0  0  0  0  0  0  0  0  0  0  0  0
   -4.6432   -0.5461    3.2756 C   0  0  0  0  0  0  0  0  0  0  0  0
   -1.4353    1.9752   -2.7722 C   0  0  0  0  0  0  0  0  0  0  0  0
    0.6103    2.9919   -0.5525 C   0  0  2  0  0  0  0  0  0  0  0  0
    2.0116    2.8236   -0.0021 C   0  0  0  0  0  0  0  0  0  0  0  0
    0.4069   -0.5464   -0.8193 C   0  0  0  0  0  0  0  0  0  0  0  0
    2.4508    1.8443    0.8064 C   0  0  0  0  0  0  0  0  0  0  0  0
    0.3984    5.3161   -0.2845 C   0  0  0  0  0  0  0  0  0  0  0  0
    6.6164   -0.5319    1.7307 C   0  0  2  0  0  0  0  0  0  0  0  0
    1.6827   -1.1776   -1.2380 C   0  0  0  0  0  0  0  0  0  0  0  0
    6.9193   -0.5423    0.1974 C   0  0  1  0  0  0  0  0  0  0  0  0
    3.8410    1.6860    1.1875 C   0  0  0  0  0  0  0  0  0  0  0  0
    5.8559    0.7080    2.2769 C   0  0  0  0  0  0  0  0  0  0  0  0
    6.1791   -1.6618   -0.5938 C   0  0  1  0  0  0  0  0  0  0  0  0
    4.3608    0.7468    2.0054 C   0  0  0  0  0  0  0  0  0  0  0  0
    2.3196   -1.9145   -0.3133 C   0  0  0  0  0  0  0  0  0  0  0  0
    7.9544   -0.6315    2.4904 C   0  0  0  0  0  0  0  0  0  0  0  0
    4.6850   -1.4577   -0.6242 C   0  0  0  0  0  0  0  0  0  0  0  0
    3.7090   -2.3549   -0.3769 C   0  0  0  0  0  0  0  0  0  0  0  0
    6.6847   -1.7530   -2.0386 C   0  0  0  0  0  0  0  0  0  0  0  0
    3.5611   -0.2708    2.7801 C   0  0  0  0  0  0  0  0  0  0  0  0
    3.9199   -3.8001   -0.0341 C   0  0  0  0  0  0  0  0  0  0  0  0
    1.4924   -1.3262   -3.5256 C   0  0  0  0  0  0  0  0  0  0  0  0
   -4.6031   -2.3574    1.3506 H   0  0  0  0  0  0  0  0  0  0  0  0
   -7.0620   -0.5726    0.8105 H   0  0  0  0  0  0  0  0  0  0  0  0
   -4.0429    0.9781   -2.4812 H   0  0  0  0  0  0  0  0  0  0  0  0
   -3.5984   -1.5564   -0.8750 H   0  0  0  0  0  0  0  0  0  0  0  0
   -4.6138   -1.5157   -2.3098 H   0  0  0  0  0  0  0  0  0  0  0  0
   -6.4925   -2.4505   -1.0188 H   0  0  0  0  0  0  0  0  0  0  0  0
   -2.3035   -0.0500   -1.0838 H   0  0  0  0  0  0  0  0  0  0  0  0
   -6.7363   -1.0012    3.2316 H   0  0  0  0  0  0  0  0  0  0  0  0
   -1.9820    2.9624   -0.9374 H   0  0  0  0  0  0  0  0  0  0  0  0
   -7.5827   -3.0501    1.2593 H   0  0  0  0  0  0  0  0  0  0  0  0
   -6.2632   -4.2277    1.3326 H   0  0  0  0  0  0  0  0  0  0  0  0
   -6.5279   -3.1357    2.6823 H   0  0  0  0  0  0  0  0  0  0  0  0
   -4.0364    3.2608   -1.5845 H   0  0  0  0  0  0  0  0  0  0  0  0
   -4.7214    2.7127   -0.0476 H   0  0  0  0  0  0  0  0  0  0  0  0
   -5.6560    2.6155   -1.5414 H   0  0  0  0  0  0  0  0  0  0  0  0
   -0.4334    1.4236    0.4769 H   0  0  0  0  0  0  0  0  0  0  0  0
   -6.8590   -0.5557   -1.5557 H   0  0  0  0  0  0  0  0  0  0  0  0
   -6.5927    1.3132    3.9499 H   0  0  0  0  0  0  0  0  0  0  0  0
   -7.5069    1.2270    2.4398 H   0  0  0  0  0  0  0  0  0  0  0  0
   -5.8303    1.8061    2.4348 H   0  0  0  0  0  0  0  0  0  0  0  0
   -4.6282   -0.1912    4.3131 H   0  0  0  0  0  0  0  0  0  0  0  0
   -4.3469   -1.5979    3.3123 H   0  0  0  0  0  0  0  0  0  0  0  0
   -3.8759    0.0150    2.7381 H   0  0  0  0  0  0  0  0  0  0  0  0
   -4.8623   -3.8375   -1.7667 H   0  0  0  0  0  0  0  0  0  0  0  0
   -2.3395    2.3424   -3.2693 H   0  0  0  0  0  0  0  0  0  0  0  0
   -0.6224    2.6309   -3.0948 H   0  0  0  0  0  0  0  0  0  0  0  0
   -1.2435    0.9701   -3.1623 H   0  0  0  0  0  0  0  0  0  0  0  0
   -2.9423    1.8665    0.9130 H   0  0  0  0  0  0  0  0  0  0  0  0
    0.7497    3.3004   -1.5969 H   0  0  0  0  0  0  0  0  0  0  0  0
    2.7361    3.5530   -0.3627 H   0  0  0  0  0  0  0  0  0  0  0  0
    1.7443    1.1127    1.1768 H   0  0  0  0  0  0  0  0  0  0  0  0
    1.4672    5.4845   -0.1261 H   0  0  0  0  0  0  0  0  0  0  0  0
    0.1448    5.4427   -1.3419 H   0  0  0  0  0  0  0  0  0  0  0  0
   -0.1468    6.0742    0.2852 H   0  0  0  0  0  0  0  0  0  0  0  0
    6.0684   -1.4447    1.9937 H   0  0  0  0  0  0  0  0  0  0  0  0
    7.9925   -0.7338    0.0641 H   0  0  0  0  0  0  0  0  0  0  0  0
    4.5263    2.3943    0.7237 H   0  0  0  0  0  0  0  0  0  0  0  0
    5.9737    0.7469    3.3692 H   0  0  0  0  0  0  0  0  0  0  0  0
    6.3420    1.6249    1.9188 H   0  0  0  0  0  0  0  0  0  0  0  0
    6.4261   -2.6089   -0.1013 H   0  0  0  0  0  0  0  0  0  0  0  0
    1.8278   -2.1492    0.6296 H   0  0  0  0  0  0  0  0  0  0  0  0
    7.7872   -0.6995    3.5707 H   0  0  0  0  0  0  0  0  0  0  0  0
    8.5854    0.2429    2.2972 H   0  0  0  0  0  0  0  0  0  0  0  0
    8.5075   -1.5280    2.1894 H   0  0  0  0  0  0  0  0  0  0  0  0
    4.3904   -0.4353   -0.8588 H   0  0  0  0  0  0  0  0  0  0  0  0
    7.7729   -1.8735   -2.0627 H   0  0  0  0  0  0  0  0  0  0  0  0
    6.2462   -2.6189   -2.5482 H   0  0  0  0  0  0  0  0  0  0  0  0
    6.4281   -0.8628   -2.6233 H   0  0  0  0  0  0  0  0  0  0  0  0
    3.7648   -0.1659    3.8514 H   0  0  0  0  0  0  0  0  0  0  0  0
    2.4810   -0.1724    2.6557 H   0  0  0  0  0  0  0  0  0  0  0  0
    3.8317   -1.2874    2.4833 H   0  0  0  0  0  0  0  0  0  0  0  0
    7.0821    0.7466   -1.2674 H   0  0  0  0  0  0  0  0  0  0  0  0
    3.2611   -4.4352   -0.6375 H   0  0  0  0  0  0  0  0  0  0  0  0
    3.6975   -3.9805    1.0232 H   0  0  0  0  0  0  0  0  0  0  0  0
    4.9406   -4.1399   -0.2263 H   0  0  0  0  0  0  0  0  0  0  0  0
    1.3890   -2.4155   -3.4641 H   0  0  0  0  0  0  0  0  0  0  0  0
    0.5047   -0.8573   -3.5804 H   0  0  0  0  0  0  0  0  0  0  0  0
    2.0259   -1.0907   -4.4514 H   0  0  0  0  0  0  0  0  0  0  0  0
  1 10  1  0  0  0  0
  1 12  1  0  0  0  0
  2 10  1  0  0  0  0
  2 61  1  0  0  0  0
  3 15  1  0  0  0  0
  3 68  1  0  0  0  0
  4 16  1  0  0  0  0
  4 72  1  0  0  0  0
  5 21  1  0  0  0  0
  5 27  1  0  0  0  0
  6 25  1  0  0  0  0
  6 29  1  0  0  0  0
  7 27  2  0  0  0  0
  8 31  1  0  0  0  0
  8 44  1  0  0  0  0
  9 32  1  0  0  0  0
  9 96  1  0  0  0  0
 10 13  1  0  0  0  0
 10 14  1  0  0  0  0
 11 12  1  0  0  0  0
 11 15  1  0  0  0  0
 11 19  1  0  0  0  0
 11 45  1  0  0  0  0
 12 17  1  0  0  0  0
 12 46  1  0  0  0  0
 13 16  1  0  0  0  0
 13 20  1  0  0  0  0
 13 47  1  0  0  0  0
 14 15  1  0  0  0  0
 14 48  1  0  0  0  0
 14 49  1  0  0  0  0
 15 50  1  0  0  0  0
 16 18  1  0  0  0  0
 16 51  1  0  0  0  0
 17 22  1  0  0  0  0
 17 23  1  0  0  0  0
 17 52  1  0  0  0  0
 18 21  1  0  0  0  0
 18 24  1  0  0  0  0
 18 53  1  0  0  0  0
 19 54  1  0  0  0  0
 19 55  1  0  0  0  0
 19 56  1  0  0  0  0
 20 57  1  0  0  0  0
 20 58  1  0  0  0  0
 20 59  1  0  0  0  0
 21 25  1  0  0  0  0
 21 60  1  0  0  0  0
 22 62  1  0  0  0  0
 22 63  1  0  0  0  0
 22 64  1  0  0  0  0
 23 65  1  0  0  0  0
 23 66  1  0  0  0  0
 23 67  1  0  0  0  0
 24 69  1  0  0  0  0
 24 70  1  0  0  0  0
 24 71  1  0  0  0  0
 25 26  1  0  0  0  0
 25 73  1  0  0  0  0
 26 28  2  0  0  0  0
 26 74  1  0  0  0  0
 27 31  1  0  0  0  0
 28 33  1  0  0  0  0
 28 75  1  0  0  0  0
 29 76  1  0  0  0  0
 29 77  1  0  0  0  0
 29 78  1  0  0  0  0
 30 32  1  0  0  0  0
 30 34  1  0  0  0  0
 30 38  1  0  0  0  0
 30 79  1  0  0  0  0
 31 37  2  0  0  0  0
 32 35  1  0  0  0  0
 32 80  1  0  0  0  0
 33 36  2  0  0  0  0
 33 81  1  0  0  0  0
 34 36  1  0  0  0  0
 34 82  1  0  0  0  0
 34 83  1  0  0  0  0
 35 39  1  0  0  0  0
 35 41  1  0  0  0  0
 35 84  1  0  0  0  0
 36 42  1  0  0  0  0
 37 40  1  0  0  0  0
 37 85  1  0  0  0  0
 38 86  1  0  0  0  0
 38 87  1  0  0  0  0
 38 88  1  0  0  0  0
 39 40  2  0  0  0  0
 39 89  1  0  0  0  0
 40 43  1  0  0  0  0
 41 90  1  0  0  0  0
 41 91  1  0  0  0  0
 41 92  1  0  0  0  0
 42 93  1  0  0  0  0
 42 94  1  0  0  0  0
 42 95  1  0  0  0  0
 43 97  1  0  0  0  0
 43 98  1  0  0  0  0
 43 99  1  0  0  0  0
 44100  1  0  0  0  0
 44101  1  0  0  0  0
 44102  1  0  0  0  0
M  END
> <DATABASE_ID>
DB06733

> <DATABASE_NAME>
drugbank

> <ORIGINAL_SOURCE>
PUBCHEM

> <ORIGINAL_SOURCE_URL>
https://pubchem.ncbi.nlm.nih.gov/rest/pug/compound/inchikey/XDHNQDDQEHDUTM-JQWOJBOSSA-N/SDF?record_type=3d

> <SMILES>
CO[C@H]1\C=C\C=C(C)\C[C@H](C)[C@H](O)[C@H](C)\C=C(/C)\C=C(OC)\C(=O)O[C@@H]1[C@@H](C)[C@@H](O)[C@H](C)[C@@]1(O)C[C@@H](O)[C@H](C)[C@H](O1)C(C)C

> <INCHI_IDENTIFIER>
InChI=1S/C35H58O9/c1-19(2)32-24(7)27(36)18-35(40,44-32)26(9)31(38)25(8)33-28(41-10)14-12-13-20(3)15-22(5)30(37)23(6)16-21(4)17-29(42-11)34(39)43-33/h12-14,16-17,19,22-28,30-33,36-38,40H,15,18H2,1-11H3/b14-12+,20-13+,21-16+,29-17-/t22-,23+,24-,25-,26-,27+,28-,30-,31+,32+,33+,35+/m0/s1

> <INCHI_KEY>
XDHNQDDQEHDUTM-JQWOJBOSSA-N

> <FORMULA>
C35H58O9

> <MOLECULAR_WEIGHT>
622.84

> <EXACT_MASS>
622.408083448

> <JCHEM_ACCEPTOR_COUNT>
8

> <JCHEM_ATOM_COUNT>
102

> <JCHEM_AVERAGE_POLARIZABILITY>
69.33031918961508

> <JCHEM_BIOAVAILABILITY>
0

> <JCHEM_DONOR_COUNT>
4

> <JCHEM_FORMAL_CHARGE>
0

> <JCHEM_GHOSE_FILTER>
0

> <JCHEM_IUPAC>
(3Z,5E,7R,8S,9S,11E,13E,15S,16R)-16-[(2S,3R,4S)-4-[(2R,4R,5S,6R)-2,4-dihydroxy-5-methyl-6-(propan-2-yl)oxan-2-yl]-3-hydroxypentan-2-yl]-8-hydroxy-3,15-dimethoxy-5,7,9,11-tetramethyl-1-oxacyclohexadeca-3,5,11,13-tetraen-2-one

> <ALOGPS_LOGP>
3.89

> <JCHEM_LOGP>
5.081522923

> <ALOGPS_LOGS>
-4.60

> <JCHEM_MDDR_LIKE_RULE>
0

> <JCHEM_NUMBER_OF_RINGS>
2

> <JCHEM_PHYSIOLOGICAL_CHARGE>
0

> <JCHEM_PKA>
14.36775477175016

> <JCHEM_PKA_STRONGEST_ACIDIC>
11.6894535546142

> <JCHEM_PKA_STRONGEST_BASIC>
-0.7344085907907704

> <JCHEM_POLAR_SURFACE_AREA>
134.91000000000003

> <JCHEM_REFRACTIVITY>
174.52820000000006

> <JCHEM_ROTATABLE_BOND_COUNT>
7

> <JCHEM_RULE_OF_FIVE>
0

> <ALOGPS_SOLUBILITY>
1.55e-02 g/l

> <JCHEM_TRADITIONAL_IUPAC>
bafilomycin A1

> <JCHEM_VEBER_RULE>
0

$$$$

  Mrv1718006231812412D          

  8  8  0  0  0  0            999 V2000
    0.3550   -0.4109    0.0000 N   0  3  0  0  0  0  0  0  0  0  0  0
    0.3646    0.4109    0.0000 C   0  0  0  0  0  0  0  0  0  0  0  0
    1.0796   -0.8340    0.0000 O   0  5  0  0  0  0  0  0  0  0  0  0
    1.0698    0.8145    0.0000 S   0  0  0  0  0  0  0  0  0  0  0  0
   -0.3744   -0.8194    0.0000 C   0  0  0  0  0  0  0  0  0  0  0  0
   -0.3598    0.8340    0.0000 C   0  0  0  0  0  0  0  0  0  0  0  0
   -1.0796   -0.3963    0.0000 C   0  0  0  0  0  0  0  0  0  0  0  0
   -1.0796    0.4255    0.0000 C   0  0  0  0  0  0  0  0  0  0  0  0
  2  1  2  0  0  0  0
  3  1  1  0  0  0  0
  4  2  1  0  0  0  0
  5  1  1  0  0  0  0
  6  2  1  0  0  0  0
  7  5  2  0  0  0  0
  8  7  1  0  0  0  0
  6  8  2  0  0  0  0
M  CHG  2   1   1   3  -1
M  END
> <DATABASE_ID>
DB06815

> <DATABASE_NAME>
drugbank

> <SMILES>
[O-][N+]1=C(S)C=CC=C1

> <INCHI_IDENTIFIER>
InChI=1S/C5H5NOS/c7-6-4-2-1-3-5(6)8/h1-4,8H

> <INCHI_KEY>
FGVVTMRZYROCTH-UHFFFAOYSA-N

> <FORMULA>
C5H5NOS

> <MOLECULAR_WEIGHT>
127.16

> <EXACT_MASS>
127.009184959

> <JCHEM_ACCEPTOR_COUNT>
1

> <JCHEM_ATOM_COUNT>
13

> <JCHEM_AVERAGE_POLARIZABILITY>
12.194941700118832

> <JCHEM_BIOAVAILABILITY>
1

> <JCHEM_DONOR_COUNT>
1

> <JCHEM_FORMAL_CHARGE>
0

> <JCHEM_GHOSE_FILTER>
0

> <JCHEM_IUPAC>
2-sulfanylpyridin-1-ium-1-olate

> <ALOGPS_LOGP>
0.87

> <JCHEM_LOGP>
0.19550161366666666

> <ALOGPS_LOGS>
-1.63

> <JCHEM_MDDR_LIKE_RULE>
0

> <JCHEM_NUMBER_OF_RINGS>
1

> <JCHEM_PHYSIOLOGICAL_CHARGE>
-1

> <JCHEM_PKA_STRONGEST_ACIDIC>
6.842894405426888

> <JCHEM_PKA_STRONGEST_BASIC>
0.6608085663731048

> <JCHEM_POLAR_SURFACE_AREA>
26.939999999999998

> <JCHEM_REFRACTIVITY>
34.4765

> <JCHEM_ROTATABLE_BOND_COUNT>
0

> <JCHEM_RULE_OF_FIVE>
1

> <ALOGPS_SOLUBILITY>
3.00e+00 g/l

> <JCHEM_TRADITIONAL_IUPAC>
2-mercaptopyridine n-oxide

> <JCHEM_VEBER_RULE>
1

> <DRUGBANK_ID>
DB06815

> <DRUG_GROUPS>
approved

> <GENERIC_NAME>
Pyrithione

> <SYNONYMS>
2-pyridinethiol 1-oxide; Omadine; Pyridinethiol N-oxide

> <PRODUCTS>
2 In 1; 2 In 1 Anti-dandruff Shampoo and Conditioner; 2 In 1 Conditioning Dandruff Shampoo; 2 In 1 Conditioning Dandruff Treatment Shampoo; 2 In 1 Dandruff Relief Shampoo & Conditioner; 2 In 1 Dandruff Shampoo Plus Conditioner for Men; 2 In 1 Dandruff Shampoo and Conditioner for Dry Scalp; 2 in 1 Antidandruff; 2 in 1 Dandruff; 2in1 Dandruff and Conditioner; 2in1 Men Advanced Series Bourbon; 2in1 Men Advanced Series Charcoal; 2in1 Men Advanced Series Deep Sea Minerals; 2in1 Men Advanced Series Fiji; 2in1 Men Advanced Series Full & Thick; 2in1 Men Advanced Series Pure Sport; 2in1 Men Advanced Series Refreshing Menthol; 2in1 Men Advanced Series Sage & Mint; 2in1 Men Advanced Series Sandalwood; 2in1 Men Advanced Series Swagger; 574H Cell Care; Actiprep; Active Control; Actrol Dandruff Shampoo; Actrol Dandruff Shampoo - 1.2%; Actrol Dandruff Shampoo 1.2%; Add More Hair; Advance Techniques Keep Clear 2-IN-1 Anti-dandruff Shampoo; Advance Techniques Keep Clear 2-in-1 Anti-Dandruff; Advance Techniques Keep Clear Anti-Dandruff Treatment; Advanced Herbal Care for thinning-damaged hair; Advanced Seborrheic Dermatitis Therapy; AffirmCare Scalp Therapy Anti-Dandruff Exfoliating Masque; AffirmCare Scalp Therapy Hydrating Anti-Dandruff; AffirmCare Scalp Therapy Hydrating Anti-Dandruff Conditioner; Alberto VO5 2 in 1 Dandruff; Aloe Coal 01; Aloe Coal 02 Conditioner; Aloe Vera 2in1; American Crew; American Crew Anti-Dandruff plus Sebum Control; American Crew Classic Anti-dandruff Shampoo; Anti Dandruff Formula Shampoo; Anti Hair Loss; Anti-Dandruff Juniper and Eucalyptus; Anti-dandruff; Anti-dandruff 2 In 1 Shampoo & Conditioner; Anti-dandruff Shampoo; Anti-dandruff Shampoo Classic Clean; Anti-dandruff Shampoo and Conditioner Howl; AntiDandruffShampoo; Antidandruff; Apex Crown Anti Dandruff; Art of Sport Anti Dandruff Compete; Art of Sport Anti Dandruff Victory; As I Am Dry and Itchy Scalp Care; As I Am Dry and Itchy Scalp Care Co Wash; As I Am Dry and Itchy Scalp Care Conditioner; Assured; At One With Nature Dry and Itchy Scalp; Australian Gold Defense Zone Anti-Dandruff Step 2; Australian Gold Defense Zone Anti-dandruff Leave-in Treatment; Australian Gold Metro 365 Medicated 2 in 1 Anti-Dandruff; Australian Gold Metro 365 Medicated Leave-In Treatment Step 3; Aveda Scalp Remedy Anti-dandruff Styling Tonic; Aveeno Active Naturals Nourish Plus Dandruff Control Anti Dandruff; Aveeno Active Naturals Nourish Plus Dandruff Control Anti Dandruff 2 in 1 Shampoo and Conditioner; Aveeno Active Naturals Nourish Plus Dandruff Control Anti Dandruff Conditioner; Avon Advance Techniques Anti-dandruff Shampoo; Avon Techniques Anti-dandruff Shampoo Plus Conditioner; Axe 2 in 1 Armor AntiDandruff 2 in 1; Axe AntiDandruff Styling; Axe Armor AntiDandruff 2 in 1; Axe Feeze AntiDandruff; Axe Freeze AntiDandruff; Axe Freeze Itch Relief 2-IN-1 Cooling Anti-dandruff; Axe Shampoo Armour Anti-dandruff; Axe Shampoo Signature Daily Dandruff Defense Anti-dandruff; Axe Signature Daily Dandruff Defense Anti-Dandruff; BEING WELL BODY 2in1 Dandruff and Conditioner; BEING WELL BODY Dry Scalp Care; Bain De Terre Alpine Mist Dandruff Shp-1%; Bain Exfoliant Hydratant; Balancing; Ballvic Sebo; Balmers Cooling Zone 31; Basic Essentials Dandruff (clean and Conditioner) 2 In 1 Everyday Clean; Basic Essentials Dandruff Dry Scalp; Basic Essentials Dandruff Everyday Clean; Biokera; Biolage Scalptherapie Antidandruff Shampoo; Biolage Scalptherapie Antidandruff Treatment; Biolage Scalpthérapie Antidandruff Conditioner; Biotin H3 2in1 Dandruff Curly Hair; Biotin H3 Anti-Dandruff Curly Hair; Biotin H3 Anti-Dandruff Normal; Biotin H3 Anti-Dandruff Straight; Bioxsine Series; Blade Howl Anti-dandruff; Blue Cap; Blue Cap Cream; Bonnoir Hair Medi; Bonogen Plus hair care shampoo; Bonogen hair care shampoo; Born Hair; Botaneth Pronoxin Hair Regainer; Brylcreem Anti-dandruff; Careline Anti-Dandruff; Carione Rg; Cellcurin Hair ReGen; Cellcurin Hair ReGen Sham poo; Certified Hair Care Dandruff Shampoo - All Hair Types; Chevance; Chill Blast; Classic Clean 2 In 1 for Normal Hair; Classic Control Antidandruff; Clean Apple; Clean Scalp Shampooing; Cleansing Nettoyant Dandruff Pyrithione Zinc Shampoo; Clear 2 in 1 Scalp Comfort AntiDandruff; Clear Complete Care AntiDandruff; Clear Complete Care Nourishing AntiDandruff; Clear Complete Scalp Care AntiDandruff Conditioner; Clear Complete Scalp Care Antidandruff; Clear Men 2 in 1 Clean and Refresh AntiDandruff; Clear Men 2 in 1 Complete Care AntiDandruff; Clear Men 2 in 1 Dry Scalp Hydration AntiDandruff; Clear Men Citrus Fresh Hydration AntiDandruff; Clear Men Clean and Refresh AntiDandruff; Clear Men Cool Sport Mint AntiDandruff; Clear Men Deep Clean Hydration AntiDandruff; Clear Men Ocean Mineral AntiDandruff; Clear Men Scalp & Hair Anti-dandruff; Clear Men Scalp Therapy 2 In 1 Clean & Refresh Anti-dandruff; Clear Men Scalp Therapy 2 In 1 Complete Care Anti-dandruff; Clear Men Scalp Therapy 2 In 1 Dry Scalp Hydration Anti-dandruff; Clear Men Scalp Therapy 2 In 1 Scalp Comfort Anti-dandruff; Clear Men Scalp Therapy Clean & Refresh Anti-dandruff; Clear Men Scalp Therapy Cool Sport Mint Anti-dandruff; Clear Men Scalp Therapy Strong & Full Anti-dandruff; Clear Men Strong and Full AntiDandruff; Clear Scalp & Hair Therapy Complete Care Anti-dandruff; Clinical Solutions Daily Scalp Treatment; Clinical Solutions Leave-ON Dandruff Treatment; Control Anti-Dandruff; Control Dandruff Therapy; Crawford Dandruff; Cremo Anti-Dandruff Fresh blend; Cvs Pharmacy Dandruff; Cyzone Be Sexy; Cyzone Be Sexy BS Tech Zinc Pyrithione And Silicones; Cyzone Trax Coolture Dermo Cool; D-COL Personal Hygiene Convenience kit; Damoae Therapy; Dan Con Pert Plus Extra Body Fine Oily Hair; Dan-gard; Dandrene; Dandruff; Dandruff 2 In 1 Shampoo and Conditioner; Dandruff 2 In 1 Shampoo and Conditioner Clean Apple; Dandruff 2 In 1 Shampoo and Conditioner Daily Clean for Normal Hair; Dandruff 2 In 1 Shampoo and Conditioner Dry Scalp Recovery; Dandruff 2 In 1 Shampoo and Conditioner Itchy Scalp; Dandruff 2 In 1 Shampoo and Conditioner Shiny Smooth; Dandruff 2 in 1; Dandruff Conditioner; Dandruff Conditioner Daily Clean for Normal Hair; Dandruff Conditioner Dry Scalp Recovery; Dandruff Conditioner Pyrithione Zinc Cream; Dandruff Control / Anti-dandruff Shampoo; Dandruff Control Crm Rinse Conditioner 1%; Dandruff Control Pert Plusnormal Or Dry Hair; Dandruff Control Shampoo; Dandruff Control Shampoo 2%; Dandruff Daily Care; Dandruff Relief Shampoo; Dandruff Remedy Shp Liq 1.45%; Dandruff Shampoo; Dandruff Shampoo (classic Or Fresh Or Smooth & Silky 2 In 1); Dandruff Shampoo (classic Or Fresh/cool & Fresh Or Silky Shine 2 In 1); Dandruff Shampoo (dry Scalp Or Classic 2 In 1); Dandruff Shampoo Classic Clean; Dandruff Shampoo Daily Clean for Normal Hair; Dandruff Shampoo Dry Scalp Recovery; Dandruff Shampoo Plus Conditioner; Dandruff Shampoo Scalp Treatment; Dandruff Shampoo and Conditioner Classic Clean 2 In 1; Dandruff Shampoo and Conditioner With Cucumber and Lemongrass Extracts; Dandruff Shampoo for Dry Scalp Care; Dandruff Shampoo for Normal/oily Hair; Dandruff Treatment Cond. Shp 1%; Dandruff Treatment Shampoo - Dry Scalp; Dandruff Treatment Shampoo Reg 1%; Daylogic 2 in 1 Dandruff Classic Scent; Daylogic 2in1 Dandruff Classic Clean; Daylogic 2in1 Dandruff Dry Scalp Care; Daylogic Dandruff Classic Clean; Daylogic Dry Scalp Dandruff; Daylogic Refresh Dandruff; Denorex Everyday Strength; Derma Doctor Born to be Mild Cleanser; Derma Doctor Calm Cool and Corrected; Dermaharmony Bar Peppermint; Dermaharmony Seborrheic Dermatitis; Dermazinc Cream; Dermazinc Shampoo; Dermazinc Spray; Design Essentials Peppermint - Aloe Therapeutics; Dg Body 2 In 1 Classic; Dg Body 2 In 1 Dry Scalp Care; Dg Body 2 In 1 Green Apple; Dg Body 2 In 1 Simply Clean; Dg Body Simply Clean; Dhs Zinc; Dhs Zinc Dandruff Shp; Dial For Men Dandruff Control Hair and Body Wash; Doll Lash; Dong Sung Anti-Hair Loss; Dong Sung Monelyn; Doo Gro Anti-Dandruff Vitalizer; Dove; Dove Derma Plus Care Scalp Anti-dandruff Aloe & Restore; Dove Derma Plus Care Scalp Anti-dandruff Invigorating Mint; Dove Derma Plus Care Scalp Anti-dandruff Invigorating Mint 2 In 1; Dove Derma+care Scalp Anti-dandruff Dryness & Itch Relief; Dove Derma+care Scalp Anti-dandruff Fresh & Clean; Dove Derma+care Scalp Anti-dandruff Fresh & Clean 2 In 1; Dove Derma+care Scalp Anti-dandruff Smoothing Moisture; Dove Dermacare Scalp Coconut Hydration Anti-Dandruff; Dove Dermacare Scalp Coconut Hydration Anti-Dandruff Conditioner; Dove Dermacare Scalp Dryness and Itch Relief Anti-Dandruff; Dove Dermacare Scalp Dryness and Itch Relief Anti-Dandruff Conditioner; Dove Dermacare Scalp Invigorating Mint 2 In 1 Anti-Dandruff; Dove Dermacare Scalp Invigorating Mint Anti-Dandruff; Dove Dermacare Scalp Pure Daily Care 2 In 1 Anti-Dandruff; Dove Dermacare Scalp Pure Daily Care Anti-Dandruff; Dove Men Plus Care Anti Dandruff; Dove Men Plus Care Derma Plus Care Scalp Anti-dandruff Deep Clean 2 In 1; Dove Men+care Derma+care Scalp Anti-dandruff Dandruff Defense 2 In 1; Dove Men+care Derma+care Scalp Anti-dandruff Dryness & Itch Relief 2 In 1; Dove Men+care Derma+care Scalp Anti-dandruff Gentle Clean 2 In 1; Dove Men+care Fortifying Shampoo + Conditioner Anti-dandruff 2 In 1; Down Under Natural's Dry Scalp Shampoo Antidandruff; Dr.FORHAIR FOLLIGEN; Dr.ZUMI SCALP; Dry Scalp; Dry Scalp Care; Dry Scalp Care Dandruff MD; Dry Scalp Care Dandruff Shampoo; Dry Scalp Dandruff; Dual Senses Scalp Regulation AntiDandruff Shampoo; DualSenses Scalp Regulation Anti-Dandruff; EASTER SCALP 100mL; ESIKA Men Effective Control; ESIKA Men Multi-Action 2-in-1; ESIKA Vital With Active Z 2-in-1 Dandruff Control; Easter Scalp; Ecologique; Ecosom; Elastine Hair Gain; Elastine Hair Gain Scalp Antiaging Conditioner; Elastine Hair Gain Treatment; Elementz; Enchante Shampooing Antipelliculaire; Epoch Ava Puhi Moni; Epoch Ava Puhi Moni Anti-Dandruff; Equaline Classic Clean; Equaline Classic Clean 2 In 1; Equaline Dandruff Classic Clean; Equaline Dandruff Dry Scalp 2 in 1; Equaline Dandruff Refresh; Equaline Dry Scalp 2 In 1; Equate 2 in 1 Dry Scalp Dandruff; Equate Beauty Color Safe Dandruff; Equate Classic Spice 2 in 1 Dandruff; Equate Dry Scalp 2 in 1 Dandruff; Equate Dry Scalp 2 in 1 Dandruff Anti-Dandruff; Equate Dry Scalp 2 in 1 Dandruff SH and COND Anti-Dandruff; Equate Dry Scalp Dandruff; Equate Everyday Clean; Equate Everyday Clean 2 in 1 Dandruff; Equate Everyday Clean 2 in 1 Dandruff Anti-Dandruff; Equate Everyday Clean 2 in 1 Dandruff SH and COND Anti-Dandruff; Equate Everyday Clean 2in1 Dandruff; Equate Everyday Clean Dandruff Anti-Dandruff; Equate Everyday Clean Gentle Dandruff; Equate Green Apple 2 in 1 Dandruff; Equate Green Apple 2 in 1 Dandruff Anti-Dandruff; Equate beauty Color Safe Dandruff Conditioner; Eron Healing Tonic; Esika Men 2 En 1 Antidandruff Multi-action; Esika Men Dandruff Maximum Strength; Esika Men Maximum Strength; Essaim Dandruff Shampoo; Everday Clean Dandruff; Every Man Jack 2-IN-1 Anti-dandruff; Everyday Clean; Everyday Clean 2 In 1 Dandruff Shampoo Plus Conditioner; Everyday Clean 2 in 1; Everyday Clean Dandruff; Everyday Clean Dandruff Shampoo; FOLLIGEN hgH RENOVATING; Folligen; Folligen Plus; For Dry Scalp Pour Cuir Chevelu Sec Shampoo Plus Conditioner Anti-dandruff; Four Season; Free and Clear; Fresh Mint Dandruff; Fructis Anti-dandruff Shampoo Clean & Fresh; Fructis Anti-dandruff Shampoo Clean & Fresh 2 In 1; Fructis Anti-dandruff Shampoo Dry Scalp; Fructis Anti-dandruff Shampoo Intense Cleanse Scrub; Fructis Anti-dandruff Shampoo Mint Cleanse; Fructis Shampooing Antipelliculaire; Fructis Shampooing Antipelliculaire 2 En 1; Fruitopia; GKhair Anti-Dandruff; Garnier Fructis Antidandruff; Garnier Fructis Antidandruff Clean and Fresh; Garnier Fructis Antidandruff Clean and Fresh 2 in 1; Garnier Fructis Antidandruff Dry Scalp; Garnier Fructis Antidandruff Intense Cleanse; Garnier Fructis Antidandruff Mint Cleanse; Gentle Therapy; Gillette Anti-dandruff Shampoo; Goldwell Scalp Regulation Anti-Dandruff; Green Apple Pomme Verte Dandruff Pyrithione Zinc Shampoo; Green Apple Pomme Verte Dandruff Pyrithione Zinc Shampoo & Conditioner; Hair; Hair and Scalp Lotion 1%; Hair and Scalp anti-dandruff; HairQ; Hairfitness Anti-dandruff Shampoo; Hairjoy; Hairjoy Msm Hair; Halsa Pyrithione Zinc Dandruff; Halsa Pyrithione Zinc Dandruff - Dry Scalp Care; Halsa anti Dandruff moisturizes and restores; Happy Cappy; Head & Shoulders Active Sport 2 In 1 Men; Head & Shoulders Active Sport Men; Head & Shoulders Citrus Breeze; Head & Shoulders Citrus Breeze 2 In 1; Head & Shoulders Classic Clean; Head & Shoulders Classic Clean 2 In 1; Head & Shoulders Damage Repair 2 In 1; Head & Shoulders Damage Rescue; Head & Shoulders Damage Rescue 2 Minute Repair Dry Scalp & Hair Treatment; Head & Shoulders Damage Rescue 2in1; Head & Shoulders Dandruff Conditioner; Head & Shoulders Dandruff Shampoo; Head & Shoulders Deep Clean 2 In 1 Men; Head & Shoulders Deep Clean Men; Head & Shoulders Dry Scalp Care; Head & Shoulders Dry Scalp Care 2 Minute Moisturizer Scalp & Hair Treatment; Head & Shoulders Dry Scalp Care 2in1; Head & Shoulders Extra Strength; Head & Shoulders Extra Strength Men; Head & Shoulders Extra Volume; Head & Shoulders Extra Volume 2in1; Head & Shoulders Full & Strong; Head & Shoulders Full & Strong 2 In 1; Head & Shoulders Full & Strong 2 Minute Strengthener Scalp & Hair Treatment; Head & Shoulders Full & Strong Conditioner; Head & Shoulders Full & Thick 2in1 Men; Head & Shoulders Full & Thick Men; Head & Shoulders Green Apple; Head & Shoulders Green Apple 2in1; Head & Shoulders Instant Cooling Relief; Head & Shoulders Instant Cooling Relief 2in1; Head & Shoulders Instant Cooling Relief Conditioner; Head & Shoulders Instant Fresh; Head & Shoulders Instant Fresh 2in1; Head & Shoulders Instant Hydration; Head & Shoulders Instant Hydration 2in1; Head & Shoulders Instant Hydration 5 Day Moisture Infusion Treatment; Head & Shoulders Instant Hydration Conditioner; Head & Shoulders Instant Oil Control; Head & Shoulders Instant Oil Control 2in1; Head & Shoulders Intensive Solutions; Head & Shoulders Itchy Scalp Care; Head & Shoulders Itchy Scalp Care 2 In 1; Head & Shoulders Moisture Care; Head & Shoulders Moisture Care 2in1; Head & Shoulders Moisture Care Cowash; Head & Shoulders Moisture Care Recovery Treatment; Head & Shoulders Nourishing Hair & Scalp Care Conditioner; Head & Shoulders Ocean Fresh; Head & Shoulders Ocean Lift; Head & Shoulders Ocean Lift 2 In 1; Head & Shoulders Purely Gentle Scalp Care; Head & Shoulders Purely Gentle Scalp Care 2in1; Head & Shoulders Pyrithione Zinc Dandruff Conditioner Classic Clean; Head & Shoulders Pyrithione Zinc Dandruff Conditioner Deep Moisture; Head & Shoulders Pyrithione Zinc Dandruff Conditioner Dry Scalp Care; Head & Shoulders Pyrithione Zinc Dandruff Conditioner Green Apple; Head & Shoulders Pyrithione Zinc Dandruff Conditioner Itchy Scalp Care; Head & Shoulders Pyrithione Zinc Dandruff Conditioner Smooth & Silky; Head & Shoulders Pyrithione Zinc Dandruff Conditioner Volume Boost; Head & Shoulders Pyrithione Zinc Dandruff Shampoo 2in1 Deep Moisture; Head & Shoulders Pyrithione Zinc Dandruff Shampoo 2in1 Invigorating Scalp Care; Head & Shoulders Pyrithione Zinc Dandruff Shampoo 2in1 Men Old Spice Pure Sport; Head & Shoulders Pyrithione Zinc Dandruff Shampoo 2in1 Men Old Spice Swagger; Head & Shoulders Pyrithione Zinc Dandruff Shampoo 2in1 Tea Tree; Head & Shoulders Pyrithione Zinc Dandruff Shampoo 2in1 Volume Boost; Head & Shoulders Pyrithione Zinc Dandruff Shampoo Deep Moisture; Head & Shoulders Pyrithione Zinc Dandruff Shampoo Invigorating Scalp Care; Head & Shoulders Pyrithione Zinc Dandruff Shampoo Men Old Spice Pure Sport; Head & Shoulders Pyrithione Zinc Dandruff Shampoo Men Old Spice Swagger; Head & Shoulders Pyrithione Zinc Dandruff Shampoo Tea Tree; Head & Shoulders Pyrithione Zinc Dandruff Shampoo Volume Boost; Head & Shoulders Refresh 2 In 1 Men; Head & Shoulders Refresh Men; Head & Shoulders Shp Crm 2%; Head & Shoulders Smooth & Silky; Head & Shoulders Smooth & Silky 2 In 1; Head & Shoulders Total Care 2in1; Head & Shoulders Total Care All-IN-1 Men; Head And Shoulders 2 in 1 Smooth and silky; Head Remedy; Head Remedy Dandruff; Head Remedy Dandruff Conditioner; Head and Shoulder Men Old Spice; Head and Shoulders; Head and Shoulders 2 In 1 Instant Moisturization; Head and Shoulders 2 In Renewing Cleanse; Head and Shoulders 2 In Soft and Manageable; Head and Shoulders 2in1 Citrus Breeze; Head and Shoulders 2in1 Classic Clean; Head and Shoulders 2in1 Dry Scalp Care; Head and Shoulders 2in1 Green Apple; Head and Shoulders 2in1 Hair Endurance for Men; Head and Shoulders 2in1 Instant Oil Control; Head and Shoulders 2in1 Instant Relief; Head and Shoulders 2in1 Itchy Scalp Care; Head and Shoulders 2in1 MEN Advanced Series Fiji Old Spice; Head and Shoulders 2in1 Men Advanced Series Charcoal; Head and Shoulders 2in1 Men Advanced Series Deep Sea Minerals; Head and Shoulders 2in1 Men Advanced Series Full and Thick; Head and Shoulders 2in1 Men Advanced Series Pure Sport Old Spice; Head and Shoulders 2in1 Men Advanced Series Swagger Old Spice; Head and Shoulders 2in1 Men with Old Spice; Head and Shoulders 2in1 Moisture Care; Head and Shoulders 2in1 Ocean Lift; Head and Shoulders 2in1 Purely Gentle Scalp Care; Head and Shoulders 2in1 Refresh; Head and Shoulders 2in1 Refresh Men; Head and Shoulders 2in1 Restoring Shine; Head and Shoulders 2in1 Sensitive Care; Head and Shoulders 2in1 Smooth and Silky; Head and Shoulders 2in1 Tea Tree; Head and Shoulders 2in1 Tea Tree plus Peppermint; Head and Shoulders 3 In 1 Men; Head and Shoulders Active Sport; Head and Shoulders Active Sport 2in1; Head and Shoulders Aloe Vera 2in1; Head and Shoulders Aloe Vera Daily; Head and Shoulders Apple Fresh; Head and Shoulders Breakege Prevention; Head and Shoulders Calming Lavender Daily; Head and Shoulders Calming Lavender Daily Hair and Scalp Conditioner; Head and Shoulders Charcoal Daily; Head and Shoulders Citrus Breeze; Head and Shoulders Citrus Fresh 2in1; Head and Shoulders Citrus Fresh Daily; Head and Shoulders Classic Clean; Head and Shoulders Classic Clean Dandruff; Head and Shoulders Clinical Solutions Leave-On Dandruff Treatment; Head and Shoulders Coconut 2in1; Head and Shoulders Coconut Daily; Head and Shoulders Coconut Daily Hair and Scalp Conditioner; Head and Shoulders Complete Scalp Care 2in1; Head and Shoulders Conditioner Classic Clean; Head and Shoulders Conditioner Damage Rescue; Head and Shoulders Conditioner Dry Scalp; Head and Shoulders Conditioner Full and Strong; Head and Shoulders Conditioner Green Apple; Head and Shoulders Conditioner Instant Hydration; Head and Shoulders Conditioner Instant Relief; Head and Shoulders Conditioner Itchy Scalp; Head and Shoulders Conditioner Ocean Lift; Head and Shoulders Conditioner Restoring Shine; Head and Shoulders Conditioner Smooth and Silky; Head and Shoulders Damage Rescue; Head and Shoulders Damage Rescue 2in1; Head and Shoulders Dandruff Moisturizing Action; Head and Shoulders Deep Moisture; Head and Shoulders Deep Moisture 2in1; Head and Shoulders Deep Moisture Hair and Scalp Conditioner; Head and Shoulders Deep Moisture Scalp and Hair Mask; Head and Shoulders Detox and Refresh; Head and Shoulders Detox and Refresh 2in1; Head and Shoulders Dry Scalp; Head and Shoulders Dry Scalp Care; Head and Shoulders Dry Scalp Care 2in1; Head and Shoulders Dry Scalp Care Hair and Scalp Conditioner; Head and Shoulders Dual Pack Smooth and Silky; Head and Shoulders Dual Sachets Classic Clean; Head and Shoulders Dual Sachets Full and Strong; Head and Shoulders Dual Sachets Green Apple; Head and Shoulders Dual Sachets Instant Relief; Head and Shoulders Dual Sachets Smooth and Silky; Head and Shoulders Extra Strength; Head and Shoulders Extra Strength Men; Head and Shoulders Extra Volume; Head and Shoulders Extra Volume 2in1; Head and Shoulders Full and Strong; Head and Shoulders Full and Strong 2in1; Head and Shoulders Green Apple; Head and Shoulders Green Apple 2in1; Head and Shoulders Hair Endurance For Men; Head and Shoulders Hair and Scalp Conditioner Classic Clean; Head and Shoulders Hair and Scalp Conditioner Green Apple; Head and Shoulders Hair and Scalp Conditioner Instant Relief; Head and Shoulders Headstrong Daily Dandruff; Head and Shoulders Headstrong Daily Dandruff 2in1; Head and Shoulders Headstrong Daily Dandruff 2in1 Vintage; Head and Shoulders Instant Fresh; Head and Shoulders Instant Fresh 2in1; Head and Shoulders Instant Hydration; Head and Shoulders Instant Hydration 2 in 1; Head and Shoulders Instant Hydration Hair and Scalp Conditioner; Head and Shoulders Instant Oil Control; Head and Shoulders Instant Oil Control Conditioner; Head and Shoulders Instant Relief; Head and Shoulders Itchy Scalp; Head and Shoulders Itchy Scalp 2in1; Head and Shoulders Itchy Scalp Care; Head and Shoulders Itchy Scalp Care Hair and Scalp Conditioner; Head and Shoulders MEN Advanced Series Bourbon 2in1; Head and Shoulders MEN Advanced Series Sage and Mint 2in1; Head and Shoulders MEN Advanced Series Sandalwood; Head and Shoulders MEN Advanced Series Sandalwood 2in1; Head and Shoulders MEN Old Spice Pure Sport; Head and Shoulders Men 2in1 Old Spice Fiji; Head and Shoulders Men 2in1 Old Spice Pure Sport; Head and Shoulders Men Active Sport; Head and Shoulders Men Active Sport 2in1; Head and Shoulders Men Advanced Series Charcoal; Head and Shoulders Men Advanced Series Full and Thick; Head and Shoulders Men Advanced Series Refreshing 2in1 Menthol; Head and Shoulders Men Advanced Series Refreshing Menthol; Head and Shoulders Men Advanced Series Swagger Old Spice; Head and Shoulders Men Deep Clean; Head and Shoulders Men Deep Clean 2in1; Head and Shoulders Men Full and Thick; Head and Shoulders Men Full and Thick 2in1; Head and Shoulders Men Old Spice; Head and Shoulders Men Refresh; Head and Shoulders Men Refresh 2in1; Head and Shoulders Men Total Care All in 1; Head and Shoulders Moisture Care; Head and Shoulders Moisture Care Cowash; Head and Shoulders Molding Clay; Head and Shoulders Nourishing Hair and Scalp Care; Head and Shoulders Nourishing Hair and Scalp Care 2in1; Head and Shoulders Nourishing Hair and Scalp Care Conditioner; Head and Shoulders Ocean Lift; Head and Shoulders Ocean Lift 2in1; Head and Shoulders Old Spice; Head and Shoulders Old Spice Swagger; Head and Shoulders Old Spice Swagger 2in1; Head and Shoulders Purely Gentle 2in1; Head and Shoulders Purely Gentle Daily; Head and Shoulders Purely Gentle Scalp Care; Head and Shoulders Purely Gentle Scalp Care 2in1; Head and Shoulders Refresh; Head and Shoulders Refresh Men; Head and Shoulders Refreshing Relief; Head and Shoulders Renewing Cleanse; Head and Shoulders Repair and Protect; Head and Shoulders Repair and Protect 2in1; Head and Shoulders Repair and Protect Hair and Scalp Conditioner; Head and Shoulders Restoring Shine; Head and Shoulders Root Rejuvenating Pre-Wash Mask; Head and Shoulders Royal Oils Daily Moisture Scalp; Head and Shoulders Royal Oils Deep Moisture Masque; Head and Shoulders Royal Oils Instant Soothe Scalp; Head and Shoulders Royal Oils Moisture Boost; Head and Shoulders Royal Oils Moisture Renewal Conditioner; Head and Shoulders Royal Oils Moisturizing Co-Wash; Head and Shoulders Royal Oils Seal and Prep Moisture Milk; Head and Shoulders Scalp Detoxifying Pre-Wash Mask; Head and Shoulders Sensitive Care; Head and Shoulders Sensitive Scalp Care; Head and Shoulders Sensitive Scalp Care 2in1; Head and Shoulders Smooth and Silky; Head and Shoulders Smooth and Silky 2in1; Head and Shoulders Styling; Head and Shoulders Styling Gel; Head and Shoulders Styling Pomade; Head and Shoulders Supreme Color Protect; Head and Shoulders Supreme Color Protect Conditioner; Head and Shoulders Supreme Detox and Hydrate; Head and Shoulders Supreme Detox and Hydrate Conditioner; Head and Shoulders Supreme Detoxifying Pre-Wash Mask; Head and Shoulders Supreme Hydrating Scalp Serum; Head and Shoulders Supreme Nourish and Smooth; Head and Shoulders Supreme Nourish and Smooth Conditioner; Head and Shoulders Supreme Nourishing Scalp and Hair Mask; Head and Shoulders Supreme Rejuvenating Pre-Wash Mask; Head and Shoulders Supreme Soothe and Strengthen; Head and Shoulders Supreme Soothe and Strengthen Conditioner; Head and Shoulders Supreme Soothing Leave On Scalp; Head and Shoulders Supreme Thickening Hair Mist; Head and Shoulders Tea Tree; Head and Shoulders Tea Tree 2in1; Head and Shoulders Tea Tree Oil 2in1; Head and Shoulders Tea Tree Oil Daily; Head and Shoulders Texturizing Putty; Head and Shoulders Treatment Damage Rescue 2 Minute Repair; Head and Shoulders Treatment Dry Scalp Care 2 Minute Moisturizer; Head and Shoulders Treatment Full and Strong 2 Minute Strengthener; Head and Shoulders Volume Boost; Head and Shoulders Volume Boost 2in1; Head and Shoulders White Charcoal Daily Hair and Scalp Conditioner; Head and Shoulders breakage prevention; Head and Shoulders hair loss prevention; Head and Shoulders menthol fresh; Head and Shoulders renewing clean; Head and Shoulders smooth and silky; Head and ShouldersVolume Boost Hair and Scalp Conditioner; Heads & Shoulders Damage Repair; Heads & Shoulders Ocean Fresh 2 In 1; Heb Dandruff; Herbal Essences, No Flakin Way Antidandruff Shampoo; Herbal Shampoo and Scalp Treatment for Dandruff Control; Herbaliste; Hyvee Care Classic Clean 2 in 1 Dandruff; Hyvee Care Classic Clean Dandruff; Hyvee Care Dry Scalp Dandruff; InnerEffect Regulate Anti-Dandruff; Intense Clear; Intense Clear Pure; Itchy Scalp; J1002901Jason Dandruff Relief 2in1Treatment; J1002902 Jason Dandruff Relief 2in1 Treatment; Jason Dandruff Relief Treatment 2 in 1; Jean Murrat Shampooing Anti-pelliculaire; Jhirmack Distinctions Silver Plus Dandruff; Just For Men Control GX Anti-Dandruff; KMS California Head Remedy Dandruff; Keep Clear Antidandruff Shp 1%; Kenra Dandruff Shampoo; KeraCare Dry and Itchy Scalp Anti-Dandruff; Kerastase Specifique Bain Exfoliant Hydratant; Kiehls Since 1851 Scalp Purifying Dandruff; Kms California Head Remedy Dandruff Shampoo; Kms Daily Fixx Dandruff Shampoo; L OCCITANE Anti-Dandruff Sensitive Scalp; LEudine Anti-dandruff; LOreal Paris Hair Expert Ever Fresh Sulfate Free Antidandruff; LOreal Paris Men Expert Antidandruff Conditioner and; LOreal Professionnel Paris Instant Clear Antidandruff; Lancell Huitomo Hair Loss Prevention Hair Grower Clean Formula; Lancell hair loss prevention hair grower clean formula; Lbel Homme Antidandruff; Leader Dandruff Everyday Clean Anti-Dandruff; Life -shampooing Et Revitalisant Antipelliculaire Classique - 2 En 1; Life Brand Itchy Dry Scalp Anti-dandruff Shampoo; Life Combat Anti-dandruff; Life Dandruff Shampoo; Lucky 2in1 Classic; Lucky Classic; Lucky Dry Hair; MD CELL Scalp; MOJELIM Dr; Mane n Tail Daily Control 2 in 1 Anti Dandruff Shampoo Conditioner; Mane n Tail Daily Control Anti-Dandruff; Matrix Biolage ScalpSync Antidandruff; Matrix Essentials Actrol Dandruff Shampoo; Medaclear; Medecean Seborrhea; Melaleuca Shampooing Antipelliculaire Pellicules Grasses, Cuir Chevelu Gras-rene Furterer; Members Mark Gentle Dandruff; Men Advanced Series Charcoal; Men Advanced Series Deep Sea Minerals; Men Advanced Series Full & Thick; Men Advanced Series Pure Sport; Men Advanced Series Refreshing Menthol; Men Advanced Series Swagger; Men Expert Anti-dandruff 2 In 1; Mizani Scalp Care Antidandruff; Mizani Scalp Care Conditioner Antidandruff Conditioner; Mo-Tech; Mo-tech; Modesa 2 In 1 Dandruff; Modesa 2 in 1 Dandruff Almond Oil Dry Scalp; Modesa 2 in 1 Dandruff Green Apple; Modesa Dandruff Everyday Clean; Mqdesa 2 In 1 Dandruff; My Black is Beautiful Scalp Care Calming Scalp and Hair; My Black is Beautiful Scalp Care Cooling Scalp Serum; Natural 17 Anti-Dandruff; Naturaltech Purifying Anti-dandruff; Ndm Scalp; Neutrogena Daily Control TGel 2 in 1 Dandruff Plus Conditioner; Neutrogena T/Gel Therapeutic; Neutrogena Tgel Daily Control 2 in 1; Nioxin Scalp Optimizing Cleanser Advanced Thinning; Nioxin Scalp Optimizing Conditioner Advanced Thinning; Nioxin Scalp Recovery Medicating Cleanser; Nioxin Scalp Recovery Moisturizing Condtioner; Nioxin Scalp Recovery Soothing Serum; No More Dandruff Hair and Scalp Conditioner; No More Dandruff Shampoo; Normal Dandruff Treatment Shampoo; Nourishing Care; Nourishing Care 2in1; Nourishing Care Conditioner; OREAD BLUE Anti-Dandruff; Ocean Breeze 2 In 1 Dandruff Sea Mineral Scent; Oily Hair Dandruff Zerran International; Old Spice Pure Sport Plus 2in1 Anti-dandruff; Old Spice Steel Courage 2in1 Anti Dandruff; Old Spice Stronger Swagger 2in1 Anti Dandruff; Original / Originale Dandruff Pyrithione Zinc Shampoo & Conditioner; Osmose - Shampooing Anti-pelliculaire; Out Of Africa 2 Minute Botanical Shampoo 1%; Out Of Africa Conditioner; Out Of Africa Dry Conditioner; Out Of Africa Dry Shampoo; Out Of Africa Regular Conditioner; Out Of Africa Regular Shampoo; P.O.V. 2 in 1 Dry Scalp Dandruff; P.O.V. Classic 2 in 1 Dandruff; P.O.V. Classic Dandruff; P.O.V. Dry Scalp Dandruff; P.O.V. Green Apple 2 in 1 Dandruff; P.O.V. Timeless Spice 2 in 1 Dandruff; PCA Skin Intensive Pigment Eraser; Panrosa FRESH CLEAN Pyrithione Zinc Dandruff; Pantene Anti-dandruff Shampoo; Pantene Pro-V Anti-dandruff; Pantene Pro-V Anti-dandruff 2in1; Pantene Pro-V Hydra Scalp Care; Pantene Pro-V Hydra Scalp Care 2in1; Pantene Pro-V Hydra Scalp Care Conditioner; Pantene Pro-V Hydra Scalp Care Pyrithione Zinc Dandruff Conditioner; Pantene Pro-V Hydra Scalp Care Pyrithione Zinc Dandruff Shampoo; Pantene Pro-V Hydra Scalp Care Pyrithione Zinc Dandruff Shampoo 2in1; Pepplus Special Care; Personal CARE Daily Clean; Personal CARE Dry Scalp; Personal Care Pyrithione Zinc Dandruff; Pert Anti-dandruff; Pert Plus 2 in 1 Anti-Dandruff; Pert Plus 2 in 1 Shampoo and Conditioner Anti-Dandruff; Pert Plus 2 in 1 Shampoo and Conditioner Dry Scalp Care; Pert Plus Dandruff Control; Pert Plus Dandruff Control Dandruff Shampoo; Pert Plus Dandruff Control for N. Or D. Hair; Pert Plus Dandruff Dismissed; Pert Plus Dandruff Plus; Pert Plus Dry Scalp Care; Pert Plus for Men Daily Dandruff; Positively Nourishing Dandruff Control 2-IN-1 Shampoo & Conditioner; Positively Nourishing Dandruff Control Conditioner; Positively Nourishing Dandruff Control Shampoo; Power Clear; PrimaDerm Anti-dandruff; Proactiv Herbal Conditioning Treatment; Proactiv Soothing Scalp Treatment Antidandruff; Purete; Pyrithione Zinc; Pyrithione Zinc 1 % Dandruff Shampoo; Pyrithione Zinc Dandruff Conditioner Suprême Nourish; Pyrithione Zinc Dandruff Conditioner Suprême Purify & Hydrate; Pyrithione Zinc Dandruff Conditioner Suprême Strengthen; Pyrithione Zinc Dandruff Shampoo Citrus; Pyrithione Zinc Dandruff Shampoo Classic Clean; Pyrithione Zinc Dandruff Shampoo Refresh; Pyrithione Zinc Dandruff Shampoo Scalp Care; Pyrithione Zinc Dandruff Shampoo Suprême Nourish; Pyrithione Zinc Dandruff Shampoo Suprême Purify & Hydrate; Pyrithione Zinc Dandruff Shampoo Suprême Strengthen; Pyrithione Zinc Dandruff Shampoo and Conditioner Classic Clean 2 In 1; REVAGAIN Hair and Scalp revitalizing; ReEn Hairloss Clinic Jahajin Shampoo for Sensitive Scalp; ReEn Mogangbichaek Conditioner; ReEn Mogangbichaek for Sensitive Scalp; Rebirth Hair; Redken 5th Avenue NYC Scalp Relief Dandruff Control; Redken Brews NYC Grooming Pyrithione Zinc Anti-dandruff; Redken Solve Acid Balance Shp; Retaliate; Revox; Rite Aid Dandruff 2 in 1 Classic Clean; Rite Aid Dandruff 2 in 1 Dry Scalp Care; Rodan & Fields Proactiv Solution: Gentle Formula Antidandruff Shampoo; Royal Dandruff; Royal Dandruff Dry Scalp; Royal dandruff Dry Scalp Care; SATINIQUE ANTI-DANDRUFF for dry, irritated scalp; SHILLS ACNE Purifying Peel Off Black Mask; Safeway Care Dandruff; Safeway Care Normal To Oily Hair; Safeway Dandruff; Safeway Dandruff Classic Clean; Safeway Dandruff Dry Scalp; Safeyway Care Normal To Oily Hair; Satinique Anti Dandruff; Satinique Anti-dandruff Shampoo; Satinique Anti-dandruff Shampoo 1.9%; Satinique Dandruff Control Hair Cleanser; Scalp Purifying Anti-dandruff Shampoo; Scalp Relief; Scalp Relief Dandruff Control (pyrithione Zinc Cream); Scalp Relief Dandruff Control (pyrithione Zinc Shampoo); Scalp Relief Dandruff Control Leave-IN Treatment; Scalp Scaling; Scalpsync Anti-dandruff; Sebastian Purist Antidandruff; Sebulon Shampoo Liq 2%; Selection Dandruff Shampoo 2 In 1; Selection Dandruff Shampoo Dry Hair; Selection Dandruff Shampoo-classic; Selsun Blue Anti-dandruff Shampoo; Selsun Blue Full and Thick; Selsun Blue Itchy Dry Scalp; Selsun Blue Sensitive Scalp; Sereve Professional Scalp; Shampoo Control - 2%; Shampooing 2 En 1 Antipelliculaire; Shampooing Anti-pelliculaire 1%; Shelo NABEL Anti Caspa; Shikatri Class; Shiny and Sleek; Shopko Beauty Classic Spice 2 in 1 Dandruff; Shopko Beauty Everyday Clean Dandruff; Shopko Beauty Green Apple 2 in 1 Dandruff; Short Cuts Anti-dandruff Shampoo; Silver Plus; Simply Clean Dandruff; Skin-cap Shampoo - 1%; Skin-cap Spray-2mg/ml; Smooth and Silky Lisse Et Soyeux Dandruff Pyrithione Zinc Conditioner; Smooth and Silky Lisse Et Soyeux Dandruff Pyrithione Zinc Shampoo; Smooth and glossy; Soft Whisper Dandruff; Soft Whisper by Power Stick Dandruff; Solve Dandruff Shampoo; Soothe and Cool Fresh; Sp System Professional 3.4 Remove Shampeeling; Spai-sons Alkaline Dry-dandruff; Sprayzinc; Suave Invigorating Ocean Minerals and Aloe Vera AntiDandruff; Suave Men 2 in 1 Dandruff; Suave Men 2 in 1 Pure Power Antidandruff; Suave Men Deep Clean Mint Refresh AntiDandruff; Suave Nourishing Coconut and Shea Butter AntiDandruff; Suave Nourishing Coconut and Shea Butter AntiDandruff Conditioner; Suave Professionals Men 2 in 1 Classic Clean AntiDandruff; Suave Professionals Men AntiDandruff; Suave Revitalizing Mint and Eucalyptus AntiDandruff; Suave Revitalizing Mint and Eucalyptus AntiDandruff Conditioner; Sulfur 8 Aqua Blue; Sulfur 8 Five Star Anti-Dandruff Hair Groom; Sulfur 8 Fresh Anti-Dandruff Moisturizing; Sulfur 8 Fresh Anti-Dandruff Oil Moisturizing; Sulfur 8 Kids Anti-Dandruff; Sulfur 8 Light Moisturizer Anti-Dandruff; Sulfur 8 Oil Moisturizer Anti-Dandruff; Sulfur 8 Scalp Therapy Medicated Dandruff Control; Suprême Thickening Hair Mist; System Prof. Epithel Med. Antidandruff Shp; System TLC Anti-dandruff; T/gel Daily Control; T/gel Daily Control 2 In 1; Tea Tree Oil 2in1; Tea Tree Oil Daily Shampoo; Tegrin; The Original Mane n Tail Daily Control 2 in 1 Anti Dandruff; The Original Mane n Tail Daily Control Anti Dandruff; The Original Mane n Tail Daily Control Anti Dandruff Conditioner; Therapeutic; Therapytion Nokmosu Neutral and oily Hair; Therapytion Nokmosu Sensitive and Dry Hair; TopCare 2 in 1 Dandruff Dry Scalp; TopCare 2 in 1 Dandruff Everyday Clean; TopCare 2 in 1 Dandruff Green Apple; TopCare 2 in 1 Dry Scalp Dandruff; TopCare Beauty Pure Sport Dandruff; TopCare Dry Scalp Gentle Dandruff; TopCare Gentle Dandruff Dry Scalp; TopCare Gentle Dandruff Everyday Clean; Topcare 2 in 1 Everyday Clean Dandruff; Topcare Everyday Clean Dandruff; Topcare Gentle Dandruff Fresh Mint; Topcare Gentle Dandruff Green Apple; Treatment; Triseptin; Triseptin Waterless Antiseptic Lotion; Truly Beauty Shampooing Antipelliculaire Classique; Truly Dandruff Shampoo; Ultraplus Cond.shampoo for Dandruff Control; University Medical Pharmaceuticals Cleansing Shampoo; Vanicream Z-Bar; Vegetability Natural; Vitale Sensitive Scalp Daily Scalp Healer; Vive Men -(anti-dandruff); Volumizing Dandruff Tonic Liq 0.15%; WeCare Anti-Dandruff; X-seb Plus Conditioning Shampoo; XtraCare 2 in 1 Hair Cleanse and Condition Coconut Water; XtraCare 2 in 1 Hair Cleanse and Condition Green Apple; XtraCare Anti-Dandruff Conditioner Coconut and Shea Butter; XtraCare Anti-Dandruff Conditioner mint and eucalyptus; XtraCare Anti-Dandruff Hair Cleanse Cocoa and Shea Butter; XtraCare Anti-Dandruff Hair Cleanse Coconut and Shea Butter; XtraCare Anti-Dandruff Hair Cleanse for normal hair; XtraCare Anti-Dandruff Hair Cleanse for sensitive hair; XtraCare Anti-Dandruff Hair Cleanse mint and eucalyptus; Yakkongmo scalp deep cleansingshampoo; Yakkongmo treatment; Z-plus Shampoo; ZNP Bar; Zinc Pyrithione; Zinc Pyrithione Dandruff Shampoo; Zinc Pyrithione Dandruff Shampoo - Cool Sensation; Zinc Pyrithione Dandruff Shampoo-normal/oily Hair; Zinc Therapy; Zinc Zap Cream; Zinc Zap Shampoo; Zinc Zap Spray; Zincon Medicated Dandruff; Znp Bar 2%; Zolidyne; Zp 11 Antidandruff Hairdressing; Zp 11 Antidandruff Shampoo (herbal) 1%; Zp11 Medicated Shampoo(reg.); maxxam dermaCare Pre-Shampoo Scalp Treatment

> <SALTS>
Pyrithione sodium; Pyrithione zinc

$$$$
5318
  -OEChem-10051722103D

 39 41  0     1  0  0  0  0  0999 V2000
   -1.4231   -0.1715    2.5837 Cl  0  0  0  0  0  0  0  0  0  0  0  0
   -2.2210   -4.8512    0.0472 Cl  0  0  0  0  0  0  0  0  0  0  0  0
    7.6111    0.3473   -0.3506 Cl  0  0  0  0  0  0  0  0  0  0  0  0
    0.7799    1.2333   -0.8367 S   0  0  0  0  0  0  0  0  0  0  0  0
   -3.2515    1.7970   -0.5677 N   0  0  0  0  0  0  0  0  0  0  0  0
   -5.0215    2.4180    0.5823 N   0  0  0  0  0  0  0  0  0  0  0  0
   -0.9021    1.0010   -0.2189 C   0  0  1  0  0  0  0  0  0  0  0  0
   -1.8834    1.8074   -1.0903 C   0  0  0  0  0  0  0  0  0  0  0  0
   -1.2377   -0.4746   -0.1187 C   0  0  0  0  0  0  0  0  0  0  0  0
    1.6670    0.3509    0.4833 C   0  0  0  0  0  0  0  0  0  0  0  0
   -1.4827   -1.0653    1.1083 C   0  0  0  0  0  0  0  0  0  0  0  0
   -1.2887   -1.2009   -1.2962 C   0  0  0  0  0  0  0  0  0  0  0  0
    3.1442    0.3496    0.2769 C   0  0  0  0  0  0  0  0  0  0  0  0
   -4.2052    0.8877   -0.8771 C   0  0  0  0  0  0  0  0  0  0  0  0
   -3.7671    2.6961    0.3039 C   0  0  0  0  0  0  0  0  0  0  0  0
   -1.7883   -2.4254    1.1603 C   0  0  0  0  0  0  0  0  0  0  0  0
   -1.5943   -2.5608   -1.2441 C   0  0  0  0  0  0  0  0  0  0  0  0
   -1.8440   -3.1732   -0.0159 C   0  0  0  0  0  0  0  0  0  0  0  0
   -5.3005    1.2915   -0.1503 C   0  0  0  0  0  0  0  0  0  0  0  0
    3.9235    1.3771    0.8081 C   0  0  0  0  0  0  0  0  0  0  0  0
    3.7461   -0.6788   -0.4483 C   0  0  0  0  0  0  0  0  0  0  0  0
    5.3049    1.3764    0.6142 C   0  0  0  0  0  0  0  0  0  0  0  0
    5.1275   -0.6797   -0.6423 C   0  0  0  0  0  0  0  0  0  0  0  0
    5.9070    0.3480   -0.1109 C   0  0  0  0  0  0  0  0  0  0  0  0
   -0.9114    1.4900    0.7581 H   0  0  0  0  0  0  0  0  0  0  0  0
   -1.9396    1.4391   -2.1222 H   0  0  0  0  0  0  0  0  0  0  0  0
   -1.5870    2.8635   -1.1416 H   0  0  0  0  0  0  0  0  0  0  0  0
    1.4308    0.8174    1.4465 H   0  0  0  0  0  0  0  0  0  0  0  0
    1.3309   -0.6889    0.5418 H   0  0  0  0  0  0  0  0  0  0  0  0
   -1.0984   -0.7487   -2.2649 H   0  0  0  0  0  0  0  0  0  0  0  0
   -4.0516    0.0660   -1.5621 H   0  0  0  0  0  0  0  0  0  0  0  0
   -3.2017    3.5254    0.7068 H   0  0  0  0  0  0  0  0  0  0  0  0
   -1.9836   -2.9045    2.1174 H   0  0  0  0  0  0  0  0  0  0  0  0
   -1.6343   -3.1312   -2.1686 H   0  0  0  0  0  0  0  0  0  0  0  0
   -6.2765    0.8295   -0.1195 H   0  0  0  0  0  0  0  0  0  0  0  0
    3.4671    2.1850    1.3740 H   0  0  0  0  0  0  0  0  0  0  0  0
    3.1504   -1.4847   -0.8688 H   0  0  0  0  0  0  0  0  0  0  0  0
    5.8996    2.1838    1.0335 H   0  0  0  0  0  0  0  0  0  0  0  0
    5.5828   -1.4872   -1.2098 H   0  0  0  0  0  0  0  0  0  0  0  0
  1 11  1  0  0  0  0
  2 18  1  0  0  0  0
  3 24  1  0  0  0  0
  4  7  1  0  0  0  0
  4 10  1  0  0  0  0
  5  8  1  0  0  0  0
  5 14  1  0  0  0  0
  5 15  1  0  0  0  0
  6 15  2  0  0  0  0
  6 19  1  0  0  0  0
  7  8  1  0  0  0  0
  7  9  1  0  0  0  0
  7 25  1  0  0  0  0
  8 26  1  0  0  0  0
  8 27  1  0  0  0  0
  9 11  2  0  0  0  0
  9 12  1  0  0  0  0
 10 13  1  0  0  0  0
 10 28  1  0  0  0  0
 10 29  1  0  0  0  0
 11 16  1  0  0  0  0
 12 17  2  0  0  0  0
 12 30  1  0  0  0  0
 13 20  2  0  0  0  0
 13 21  1  0  0  0  0
 14 19  2  0  0  0  0
 14 31  1  0  0  0  0
 15 32  1  0  0  0  0
 16 18  2  0  0  0  0
 16 33  1  0  0  0  0
 17 18  1  0  0  0  0
 17 34  1  0  0  0  0
 19 35  1  0  0  0  0
 20 22  1  0  0  0  0
 20 36  1  0  0  0  0
 21 23  2  0  0  0  0
 21 37  1  0  0  0  0
 22 24  2  0  0  0  0
 22 38  1  0  0  0  0
 23 24  1  0  0  0  0
 23 39  1  0  0  0  0
M  END
> <DATABASE_ID>
DB06820

> <DATABASE_NAME>
drugbank

> <ORIGINAL_SOURCE>
PUBCHEM

> <ORIGINAL_SOURCE_URL>
https://pubchem.ncbi.nlm.nih.gov/rest/pug/compound/inchikey/AFNXATANNDIXLG-UHFFFAOYSA-N/SDF?record_type=3d

> <SMILES>
ClC1=CC=C(CSC(CN2C=CN=C2)C2=C(Cl)C=C(Cl)C=C2)C=C1

> <INCHI_IDENTIFIER>
InChI=1S/C18H15Cl3N2S/c19-14-3-1-13(2-4-14)11-24-18(10-23-8-7-22-12-23)16-6-5-15(20)9-17(16)21/h1-9,12,18H,10-11H2

> <INCHI_KEY>
AFNXATANNDIXLG-UHFFFAOYSA-N

> <FORMULA>
C18H15Cl3N2S

> <MOLECULAR_WEIGHT>
397.74

> <EXACT_MASS>
396.0021528

> <JCHEM_ACCEPTOR_COUNT>
1

> <JCHEM_ATOM_COUNT>
39

> <JCHEM_AVERAGE_POLARIZABILITY>
39.57418905495578

> <JCHEM_BIOAVAILABILITY>
1

> <JCHEM_DONOR_COUNT>
0

> <JCHEM_FORMAL_CHARGE>
0

> <JCHEM_GHOSE_FILTER>
0

> <JCHEM_IUPAC>
1-(2-{[(4-chlorophenyl)methyl]sulfanyl}-2-(2,4-dichlorophenyl)ethyl)-1H-imidazole

> <ALOGPS_LOGP>
5.72

> <JCHEM_LOGP>
6.062066127666665

> <ALOGPS_LOGS>
-5.49

> <JCHEM_MDDR_LIKE_RULE>
1

> <JCHEM_NUMBER_OF_RINGS>
3

> <JCHEM_PHYSIOLOGICAL_CHARGE>
1

> <JCHEM_PKA_STRONGEST_BASIC>
6.778654380309159

> <JCHEM_POLAR_SURFACE_AREA>
17.82

> <JCHEM_REFRACTIVITY>
104.36659999999999

> <JCHEM_ROTATABLE_BOND_COUNT>
6

> <JCHEM_RULE_OF_FIVE>
0

> <ALOGPS_SOLUBILITY>
1.29e-03 g/l

> <JCHEM_TRADITIONAL_IUPAC>
sulconazole

> <JCHEM_VEBER_RULE>
1

$$$$
312145
  -OEChem-05221821173D

 55 59  0     1  0  0  0  0  0999 V2000
   -0.6803   -2.3798    0.0583 O   0  0  0  0  0  0  0  0  0  0  0  0
    3.4830   -0.9945    0.8000 O   0  0  0  0  0  0  0  0  0  0  0  0
    2.2883    3.1995   -0.4403 O   0  0  0  0  0  0  0  0  0  0  0  0
   -5.5370   -0.1386   -0.1307 O   0  0  0  0  0  0  0  0  0  0  0  0
   -0.5376    3.4454   -0.9513 O   0  0  0  0  0  0  0  0  0  0  0  0
    2.9992   -2.4799   -1.4412 O   0  0  0  0  0  0  0  0  0  0  0  0
    5.3452    0.3379    0.7992 O   0  0  0  0  0  0  0  0  0  0  0  0
   -2.0875   -3.7619    1.2611 O   0  0  0  0  0  0  0  0  0  0  0  0
   -3.1967    0.3305    0.3340 C   0  0  2  0  0  0  0  0  0  0  0  0
   -2.3327    1.1616   -0.6447 C   0  0  2  0  0  0  0  0  0  0  0  0
   -0.3278    0.0356    0.3318 C   0  0  0  0  0  0  0  0  0  0  0  0
   -2.7003   -1.1022    0.2418 C   0  0  0  0  0  0  0  0  0  0  0  0
    1.1475   -0.0331    0.8545 C   0  0  2  0  0  0  0  0  0  0  0  0
   -0.8783    1.1606   -0.2339 C   0  0  0  0  0  0  0  0  0  0  0  0
   -1.2117   -1.1934    0.6400 C   0  0  1  0  0  0  0  0  0  0  0  0
   -3.1647    2.4351   -0.8359 C   0  0  0  0  0  0  0  0  0  0  0  0
   -4.5661    0.5950   -0.2612 C   0  0  0  0  0  0  0  0  0  0  0  0
   -4.5943    1.9063   -1.0176 C   0  0  0  0  0  0  0  0  0  0  0  0
   -3.2320    0.8373    1.7879 C   0  0  0  0  0  0  0  0  0  0  0  0
    1.8677    1.1878    0.4276 C   0  0  0  0  0  0  0  0  0  0  0  0
    2.0761   -1.1991    0.3516 C   0  0  1  0  0  0  0  0  0  0  0  0
   -0.0573    2.4247   -0.4769 C   0  0  0  0  0  0  0  0  0  0  0  0
    1.3209    2.2926   -0.1392 C   0  0  0  0  0  0  0  0  0  0  0  0
    1.1126   -0.0588    2.4059 C   0  0  0  0  0  0  0  0  0  0  0  0
    3.2568    1.3169    0.3443 C   0  0  0  0  0  0  0  0  0  0  0  0
    2.1165   -1.4109   -1.1667 C   0  0  0  0  0  0  0  0  0  0  0  0
    4.1345    0.2205    0.6588 C   0  0  0  0  0  0  0  0  0  0  0  0
    3.4830    2.5917   -0.1245 C   0  0  0  0  0  0  0  0  0  0  0  0
   -1.3983   -3.5214    0.2792 C   0  0  0  0  0  0  0  0  0  0  0  0
   -1.2230   -4.4623   -0.8742 C   0  0  0  0  0  0  0  0  0  0  0  0
    3.0944   -2.7431   -2.8376 C   0  0  0  0  0  0  0  0  0  0  0  0
   -2.3383    0.6705   -1.6337 H   0  0  0  0  0  0  0  0  0  0  0  0
   -2.8523   -1.4872   -0.7768 H   0  0  0  0  0  0  0  0  0  0  0  0
   -3.3229   -1.7364    0.8841 H   0  0  0  0  0  0  0  0  0  0  0  0
   -1.1867   -1.3226    1.7296 H   0  0  0  0  0  0  0  0  0  0  0  0
   -2.8629    3.0080   -1.7184 H   0  0  0  0  0  0  0  0  0  0  0  0
   -3.1000    3.0976    0.0346 H   0  0  0  0  0  0  0  0  0  0  0  0
   -4.8086    1.7029   -2.0707 H   0  0  0  0  0  0  0  0  0  0  0  0
   -5.3331    2.5898   -0.5940 H   0  0  0  0  0  0  0  0  0  0  0  0
   -3.6846    1.8316    1.8698 H   0  0  0  0  0  0  0  0  0  0  0  0
   -3.8416    0.1687    2.4077 H   0  0  0  0  0  0  0  0  0  0  0  0
   -2.2395    0.8930    2.2438 H   0  0  0  0  0  0  0  0  0  0  0  0
    1.7794   -2.1403    0.8295 H   0  0  0  0  0  0  0  0  0  0  0  0
    0.4686    0.7349    2.8048 H   0  0  0  0  0  0  0  0  0  0  0  0
    0.7399   -1.0168    2.7842 H   0  0  0  0  0  0  0  0  0  0  0  0
    2.1060    0.0911    2.8453 H   0  0  0  0  0  0  0  0  0  0  0  0
    2.4872   -0.5187   -1.6827 H   0  0  0  0  0  0  0  0  0  0  0  0
    1.1220   -1.6440   -1.5584 H   0  0  0  0  0  0  0  0  0  0  0  0
    4.3672    3.1703   -0.3490 H   0  0  0  0  0  0  0  0  0  0  0  0
   -0.1655   -4.7129   -0.9899 H   0  0  0  0  0  0  0  0  0  0  0  0
   -1.6122   -4.0043   -1.7870 H   0  0  0  0  0  0  0  0  0  0  0  0
   -1.7799   -5.3832   -0.6794 H   0  0  0  0  0  0  0  0  0  0  0  0
    2.1169   -3.0246   -3.2409 H   0  0  0  0  0  0  0  0  0  0  0  0
    3.7864   -3.5769   -2.9832 H   0  0  0  0  0  0  0  0  0  0  0  0
    3.4842   -1.8680   -3.3663 H   0  0  0  0  0  0  0  0  0  0  0  0
  1 15  1  0  0  0  0
  1 29  1  0  0  0  0
  2 21  1  0  0  0  0
  2 27  1  0  0  0  0
  3 23  1  0  0  0  0
  3 28  1  0  0  0  0
  4 17  2  0  0  0  0
  5 22  2  0  0  0  0
  6 26  1  0  0  0  0
  6 31  1  0  0  0  0
  7 27  2  0  0  0  0
  8 29  2  0  0  0  0
  9 10  1  0  0  0  0
  9 12  1  0  0  0  0
  9 17  1  0  0  0  0
  9 19  1  0  0  0  0
 10 14  1  0  0  0  0
 10 16  1  0  0  0  0
 10 32  1  0  0  0  0
 11 13  1  0  0  0  0
 11 14  2  0  0  0  0
 11 15  1  0  0  0  0
 12 15  1  0  0  0  0
 12 33  1  0  0  0  0
 12 34  1  0  0  0  0
 13 20  1  0  0  0  0
 13 21  1  0  0  0  0
 13 24  1  0  0  0  0
 14 22  1  0  0  0  0
 15 35  1  0  0  0  0
 16 18  1  0  0  0  0
 16 36  1  0  0  0  0
 16 37  1  0  0  0  0
 17 18  1  0  0  0  0
 18 38  1  0  0  0  0
 18 39  1  0  0  0  0
 19 40  1  0  0  0  0
 19 41  1  0  0  0  0
 19 42  1  0  0  0  0
 20 23  2  0  0  0  0
 20 25  1  0  0  0  0
 21 26  1  0  0  0  0
 21 43  1  0  0  0  0
 22 23  1  0  0  0  0
 24 44  1  0  0  0  0
 24 45  1  0  0  0  0
 24 46  1  0  0  0  0
 25 27  1  0  0  0  0
 25 28  2  0  0  0  0
 26 47  1  0  0  0  0
 26 48  1  0  0  0  0
 28 49  1  0  0  0  0
 29 30  1  0  0  0  0
 30 50  1  0  0  0  0
 30 51  1  0  0  0  0
 30 52  1  0  0  0  0
 31 53  1  0  0  0  0
 31 54  1  0  0  0  0
 31 55  1  0  0  0  0
M  END
> <DATABASE_ID>
DB08059

> <DATABASE_NAME>
drugbank

> <ORIGINAL_SOURCE>
PUBCHEM

> <ORIGINAL_SOURCE_URL>
https://pubchem.ncbi.nlm.nih.gov/rest/pug/compound/inchikey/QDLHCMPXEPAAMD-QAIWCSMKSA-N/SDF?record_type=3d

> <SMILES>
[H][C@@]12CCC(=O)[C@@]1(C)C[C@@H](OC(C)=O)C1=C2C(=O)C2=C3C(=CO2)C(=O)O[C@H](COC)[C@]13C

> <INCHI_IDENTIFIER>
InChI=1S/C23H24O8/c1-10(24)30-13-7-22(2)12(5-6-14(22)25)16-18(13)23(3)15(9-28-4)31-21(27)11-8-29-20(17(11)23)19(16)26/h8,12-13,15H,5-7,9H2,1-4H3/t12-,13+,15+,22-,23-/m0/s1

> <INCHI_KEY>
QDLHCMPXEPAAMD-QAIWCSMKSA-N

> <FORMULA>
C23H24O8

> <MOLECULAR_WEIGHT>
428.4319

> <EXACT_MASS>
428.147117744

> <JCHEM_ACCEPTOR_COUNT>
5

> <JCHEM_ATOM_COUNT>
55

> <JCHEM_AVERAGE_POLARIZABILITY>
42.97866492702228

> <JCHEM_BIOAVAILABILITY>
1

> <JCHEM_DONOR_COUNT>
0

> <JCHEM_FORMAL_CHARGE>
0

> <JCHEM_GHOSE_FILTER>
1

> <JCHEM_IUPAC>
(1R,3R,5S,9R,18S)-18-(methoxymethyl)-1,5-dimethyl-6,11,16-trioxo-13,17-dioxapentacyclo[10.6.1.0^{2,10}.0^{5,9}.0^{15,19}]nonadeca-2(10),12(19),14-trien-3-yl acetate

> <ALOGPS_LOGP>
2.31

> <JCHEM_LOGP>
1.4426177013333332

> <ALOGPS_LOGS>
-3.55

> <JCHEM_MDDR_LIKE_RULE>
0

> <JCHEM_NUMBER_OF_RINGS>
5

> <JCHEM_PHYSIOLOGICAL_CHARGE>
0

> <JCHEM_PKA_STRONGEST_BASIC>
-3.18707004101998

> <JCHEM_POLAR_SURFACE_AREA>
109.11

> <JCHEM_REFRACTIVITY>
106.8572

> <JCHEM_ROTATABLE_BOND_COUNT>
4

> <JCHEM_RULE_OF_FIVE>
1

> <ALOGPS_SOLUBILITY>
1.21e-01 g/l

> <JCHEM_TRADITIONAL_IUPAC>
(1R,3R,5S,9R,18S)-18-(methoxymethyl)-1,5-dimethyl-6,11,16-trioxo-13,17-dioxapentacyclo[10.6.1.0^{2,10}.0^{5,9}.0^{15,19}]nonadeca-2(10),12(19),14-trien-3-yl acetate

> <JCHEM_VEBER_RULE>
0

$$$$
3003141
  -OEChem-10051721593D

 30 32  0     1  0  0  0  0  0999 V2000
    3.1771    1.3339   -2.4708 Cl  0  0  0  0  0  0  0  0  0  0  0  0
    6.8484   -0.7674    0.8575 Cl  0  0  0  0  0  0  0  0  0  0  0  0
    0.0483   -0.8603   -0.3468 S   0  0  0  0  0  0  0  0  0  0  0  0
   -1.3035    1.6465    0.4556 S   0  0  0  0  0  0  0  0  0  0  0  0
   -3.8943    0.0108    0.0643 N   0  0  0  0  0  0  0  0  0  0  0  0
   -5.9884    0.2181    0.6097 N   0  0  0  0  0  0  0  0  0  0  0  0
   -2.5343   -3.1034   -0.9185 N   0  0  0  0  0  0  0  0  0  0  0  0
    1.1047    0.6370   -0.2877 C   0  0  1  0  0  0  0  0  0  0  0  0
    0.4942    1.5866    0.7474 C   0  0  0  0  0  0  0  0  0  0  0  0
    2.5555    0.2966   -0.0294 C   0  0  0  0  0  0  0  0  0  0  0  0
   -1.4404   -0.0160   -0.0363 C   0  0  0  0  0  0  0  0  0  0  0  0
    3.5512    0.5783   -0.9648 C   0  0  0  0  0  0  0  0  0  0  0  0
    2.8874   -0.3140    1.1801 C   0  0  0  0  0  0  0  0  0  0  0  0
   -2.6295   -0.6146   -0.1704 C   0  0  0  0  0  0  0  0  0  0  0  0
    4.8786    0.2493   -0.6909 C   0  0  0  0  0  0  0  0  0  0  0  0
    4.2148   -0.6429    1.4540 C   0  0  0  0  0  0  0  0  0  0  0  0
    5.2106   -0.3613    0.5185 C   0  0  0  0  0  0  0  0  0  0  0  0
   -4.1400    1.3135   -0.1124 C   0  0  0  0  0  0  0  0  0  0  0  0
   -4.9899   -0.6285    0.4903 C   0  0  0  0  0  0  0  0  0  0  0  0
   -2.5851   -1.9928   -0.5842 C   0  0  0  0  0  0  0  0  0  0  0  0
   -5.4654    1.4305    0.2351 C   0  0  0  0  0  0  0  0  0  0  0  0
    0.9727    1.1035   -1.2674 H   0  0  0  0  0  0  0  0  0  0  0  0
    0.6586    1.2565    1.7788 H   0  0  0  0  0  0  0  0  0  0  0  0
    0.9156    2.5932    0.6548 H   0  0  0  0  0  0  0  0  0  0  0  0
    2.1330   -0.5472    1.9266 H   0  0  0  0  0  0  0  0  0  0  0  0
    5.6565    0.4685   -1.4192 H   0  0  0  0  0  0  0  0  0  0  0  0
    4.4590   -1.1189    2.4002 H   0  0  0  0  0  0  0  0  0  0  0  0
   -3.5192    2.0556   -0.5887 H   0  0  0  0  0  0  0  0  0  0  0  0
   -5.0484   -1.6860    0.7133 H   0  0  0  0  0  0  0  0  0  0  0  0
   -6.0802    2.3180    0.1964 H   0  0  0  0  0  0  0  0  0  0  0  0
  1 12  1  0  0  0  0
  2 17  1  0  0  0  0
  3  8  1  0  0  0  0
  3 11  1  0  0  0  0
  4  9  1  0  0  0  0
  4 11  1  0  0  0  0
  5 14  1  0  0  0  0
  5 18  1  0  0  0  0
  5 19  1  0  0  0  0
  6 19  2  0  0  0  0
  6 21  1  0  0  0  0
  7 20  3  0  0  0  0
  8  9  1  0  0  0  0
  8 10  1  0  0  0  0
  8 22  1  0  0  0  0
  9 23  1  0  0  0  0
  9 24  1  0  0  0  0
 10 12  2  0  0  0  0
 10 13  1  0  0  0  0
 11 14  2  0  0  0  0
 12 15  1  0  0  0  0
 13 16  2  0  0  0  0
 13 25  1  0  0  0  0
 14 20  1  0  0  0  0
 15 17  2  0  0  0  0
 15 26  1  0  0  0  0
 16 17  1  0  0  0  0
 16 27  1  0  0  0  0
 18 21  2  0  0  0  0
 18 28  1  0  0  0  0
 19 29  1  0  0  0  0
 21 30  1  0  0  0  0
M  END
> <DATABASE_ID>
DB08933

> <DATABASE_NAME>
drugbank

> <ORIGINAL_SOURCE>
PUBCHEM

> <ORIGINAL_SOURCE_URL>
https://pubchem.ncbi.nlm.nih.gov/rest/pug/compound/inchikey/YTAOBBFIOAEMLL-REQDGWNSSA-N/SDF?record_type=3d

> <SMILES>
ClC1=CC(Cl)=C(C=C1)[C@@H]1CS\C(S1)=C(\C#N)N1C=CN=C1

> <INCHI_IDENTIFIER>
InChI=1S/C14H9Cl2N3S2/c15-9-1-2-10(11(16)5-9)13-7-20-14(21-13)12(6-17)19-4-3-18-8-19/h1-5,8,13H,7H2/b14-12+/t13-/m0/s1

> <INCHI_KEY>
YTAOBBFIOAEMLL-REQDGWNSSA-N

> <FORMULA>
C14H9Cl2N3S2

> <MOLECULAR_WEIGHT>
354.27

> <EXACT_MASS>
352.961495

> <JCHEM_ACCEPTOR_COUNT>
2

> <JCHEM_ATOM_COUNT>
30

> <JCHEM_AVERAGE_POLARIZABILITY>
33.65139842697815

> <JCHEM_BIOAVAILABILITY>
1

> <JCHEM_DONOR_COUNT>
0

> <JCHEM_FORMAL_CHARGE>
0

> <JCHEM_GHOSE_FILTER>
1

> <JCHEM_IUPAC>
2-[(2E,4R)-4-(2,4-dichlorophenyl)-1,3-dithiolan-2-ylidene]-2-(1H-imidazol-1-yl)acetonitrile

> <ALOGPS_LOGP>
4.27

> <JCHEM_LOGP>
4.069960693666666

> <ALOGPS_LOGS>
-3.73

> <JCHEM_MDDR_LIKE_RULE>
0

> <JCHEM_NUMBER_OF_RINGS>
3

> <JCHEM_PHYSIOLOGICAL_CHARGE>
0

> <JCHEM_PKA_STRONGEST_BASIC>
6.342156685632852

> <JCHEM_POLAR_SURFACE_AREA>
41.61

> <JCHEM_REFRACTIVITY>
101.00049999999999

> <JCHEM_ROTATABLE_BOND_COUNT>
2

> <JCHEM_RULE_OF_FIVE>
1

> <ALOGPS_SOLUBILITY>
6.59e-02 g/l

> <JCHEM_TRADITIONAL_IUPAC>
luliconazole

> <JCHEM_VEBER_RULE>
0

$$$$
3760
  -OEChem-10051721593D

 39 41  0     1  0  0  0  0  0999 V2000
   -2.2210   -0.9694   -2.7301 Cl  0  0  0  0  0  0  0  0  0  0  0  0
   -5.9585    1.3636    0.3615 Cl  0  0  0  0  0  0  0  0  0  0  0  0
    3.1326    0.5197   -2.0282 Cl  0  0  0  0  0  0  0  0  0  0  0  0
   -0.3877    3.0424    1.2849 Cl  0  0  0  0  0  0  0  0  0  0  0  0
    0.4511   -0.2224    0.1736 O   0  0  0  0  0  0  0  0  0  0  0  0
    0.9391   -3.0521    0.6416 N   0  0  0  0  0  0  0  0  0  0  0  0
    2.4878   -4.4332   -0.1081 N   0  0  0  0  0  0  0  0  0  0  0  0
   -0.5507   -1.1962   -0.1496 C   0  0  1  0  0  0  0  0  0  0  0  0
   -0.3602   -2.4070    0.7866 C   0  0  0  0  0  0  0  0  0  0  0  0
   -1.9015   -0.5635   -0.0545 C   0  0  0  0  0  0  0  0  0  0  0  0
    0.3984    0.8771   -0.7181 C   0  0  0  0  0  0  0  0  0  0  0  0
   -2.7232   -0.4205   -1.1726 C   0  0  0  0  0  0  0  0  0  0  0  0
   -2.3344   -0.1108    1.1918 C   0  0  0  0  0  0  0  0  0  0  0  0
    1.4623    1.8654   -0.3401 C   0  0  0  0  0  0  0  0  0  0  0  0
    2.0623   -2.7394    1.3367 C   0  0  0  0  0  0  0  0  0  0  0  0
    1.2293   -4.0678   -0.2120 C   0  0  0  0  0  0  0  0  0  0  0  0
   -3.9779    0.1755   -1.0443 C   0  0  0  0  0  0  0  0  0  0  0  0
   -3.5889    0.4850    1.3201 C   0  0  0  0  0  0  0  0  0  0  0  0
   -4.4107    0.6283    0.2021 C   0  0  0  0  0  0  0  0  0  0  0  0
    3.0126   -3.6094    0.8560 C   0  0  0  0  0  0  0  0  0  0  0  0
    2.7351    1.7651   -0.8996 C   0  0  0  0  0  0  0  0  0  0  0  0
    1.1759    2.8823    0.5694 C   0  0  0  0  0  0  0  0  0  0  0  0
    3.7241    2.6841   -0.5487 C   0  0  0  0  0  0  0  0  0  0  0  0
    2.1650    3.8011    0.9203 C   0  0  0  0  0  0  0  0  0  0  0  0
    3.4391    3.7021    0.3611 C   0  0  0  0  0  0  0  0  0  0  0  0
   -0.3178   -1.5561   -1.1561 H   0  0  0  0  0  0  0  0  0  0  0  0
   -0.4318   -2.1172    1.8419 H   0  0  0  0  0  0  0  0  0  0  0  0
   -1.1249   -3.1706    0.5995 H   0  0  0  0  0  0  0  0  0  0  0  0
   -0.5722    1.3806   -0.7236 H   0  0  0  0  0  0  0  0  0  0  0  0
    0.5262    0.5309   -1.7503 H   0  0  0  0  0  0  0  0  0  0  0  0
   -1.7073   -0.1994    2.0746 H   0  0  0  0  0  0  0  0  0  0  0  0
    2.0993   -1.9587    2.0836 H   0  0  0  0  0  0  0  0  0  0  0  0
    0.5005   -4.5017   -0.8830 H   0  0  0  0  0  0  0  0  0  0  0  0
   -4.6202    0.2881   -1.9153 H   0  0  0  0  0  0  0  0  0  0  0  0
   -3.9116    0.8362    2.2969 H   0  0  0  0  0  0  0  0  0  0  0  0
    4.0481   -3.6834    1.1544 H   0  0  0  0  0  0  0  0  0  0  0  0
    4.7222    2.6208   -0.9748 H   0  0  0  0  0  0  0  0  0  0  0  0
    1.9594    4.6005    1.6278 H   0  0  0  0  0  0  0  0  0  0  0  0
    4.2092    4.4176    0.6343 H   0  0  0  0  0  0  0  0  0  0  0  0
  1 12  1  0  0  0  0
  2 19  1  0  0  0  0
  3 21  1  0  0  0  0
  4 22  1  0  0  0  0
  5  8  1  0  0  0  0
  5 11  1  0  0  0  0
  6  9  1  0  0  0  0
  6 15  1  0  0  0  0
  6 16  1  0  0  0  0
  7 16  2  0  0  0  0
  7 20  1  0  0  0  0
  8  9  1  0  0  0  0
  8 10  1  0  0  0  0
  8 26  1  0  0  0  0
  9 27  1  0  0  0  0
  9 28  1  0  0  0  0
 10 12  2  0  0  0  0
 10 13  1  0  0  0  0
 11 14  1  0  0  0  0
 11 29  1  0  0  0  0
 11 30  1  0  0  0  0
 12 17  1  0  0  0  0
 13 18  2  0  0  0  0
 13 31  1  0  0  0  0
 14 21  2  0  0  0  0
 14 22  1  0  0  0  0
 15 20  2  0  0  0  0
 15 32  1  0  0  0  0
 16 33  1  0  0  0  0
 17 19  2  0  0  0  0
 17 34  1  0  0  0  0
 18 19  1  0  0  0  0
 18 35  1  0  0  0  0
 20 36  1  0  0  0  0
 21 23  1  0  0  0  0
 22 24  2  0  0  0  0
 23 25  2  0  0  0  0
 23 37  1  0  0  0  0
 24 25  1  0  0  0  0
 24 38  1  0  0  0  0
 25 39  1  0  0  0  0
M  END
> <DATABASE_ID>
DB08943

> <DATABASE_NAME>
drugbank

> <ORIGINAL_SOURCE>
PUBCHEM

> <ORIGINAL_SOURCE_URL>
https://pubchem.ncbi.nlm.nih.gov/rest/pug/compound/inchikey/MPIPASJGOJYODL-UHFFFAOYSA-N/SDF?record_type=3d

> <SMILES>
ClC1=CC(Cl)=C(C=C1)C(CN1C=CN=C1)OCC1=C(Cl)C=CC=C1Cl

> <INCHI_IDENTIFIER>
InChI=1S/C18H14Cl4N2O/c19-12-4-5-13(17(22)8-12)18(9-24-7-6-23-11-24)25-10-14-15(20)2-1-3-16(14)21/h1-8,11,18H,9-10H2

> <INCHI_KEY>
MPIPASJGOJYODL-UHFFFAOYSA-N

> <FORMULA>
C18H14Cl4N2O

> <MOLECULAR_WEIGHT>
416.129

> <EXACT_MASS>
413.986023908

> <JCHEM_ACCEPTOR_COUNT>
2

> <JCHEM_AVERAGE_POLARIZABILITY>
39.30732375881153

> <JCHEM_BIOAVAILABILITY>
1

> <JCHEM_DONOR_COUNT>
0

> <JCHEM_FORMAL_CHARGE>
0

> <JCHEM_GHOSE_FILTER>
0

> <JCHEM_IUPAC>
1-[2-(2,4-dichlorophenyl)-2-[(2,6-dichlorophenyl)methoxy]ethyl]-1H-imidazole

> <ALOGPS_LOGP>
5.23

> <JCHEM_LOGP>
5.956368360333332

> <ALOGPS_LOGS>
-5.70

> <JCHEM_MDDR_LIKE_RULE>
1

> <JCHEM_NUMBER_OF_RINGS>
3

> <JCHEM_PHYSIOLOGICAL_CHARGE>
1

> <JCHEM_PKA_STRONGEST_BASIC>
6.7672919013557715

> <JCHEM_POLAR_SURFACE_AREA>
27.05

> <JCHEM_REFRACTIVITY>
103.06759999999998

> <JCHEM_ROTATABLE_BOND_COUNT>
6

> <JCHEM_RULE_OF_FIVE>
0

> <ALOGPS_SOLUBILITY>
8.25e-04 g/l

> <JCHEM_TRADITIONAL_IUPAC>
isoconazole

> <JCHEM_VEBER_RULE>
1

$$$$
3607
  -OEChem-10051721593D

 69 69  0     1  0  0  0  0  0999 V2000
   -1.1064   -1.1206    0.2665 N   0  0  2  0  0  0  0  0  0  0  0  0
    1.3186   -0.9096    0.1091 N   0  0  1  0  0  0  0  0  0  0  0  0
    0.2306   -3.9408   -1.8093 N   0  0  0  0  0  0  0  0  0  0  0  0
    0.1415   -2.5557   -1.3276 C   0  0  0  0  0  0  0  0  0  0  0  0
   -1.0747   -2.4423   -0.3814 C   0  0  0  0  0  0  0  0  0  0  0  0
    1.4316   -2.2242   -0.5445 C   0  0  0  0  0  0  0  0  0  0  0  0
    0.1473   -0.8793    1.0036 C   0  0  0  0  0  0  0  0  0  0  0  0
   -2.2597   -1.0139    1.1595 C   0  0  0  0  0  0  0  0  0  0  0  0
    2.5413   -0.5966    0.8479 C   0  0  0  0  0  0  0  0  0  0  0  0
   -2.6136    0.4413    1.5339 C   0  0  1  0  0  0  0  0  0  0  0  0
    3.6997   -0.1222   -0.0553 C   0  0  1  0  0  0  0  0  0  0  0  0
   -0.0185   -1.6304   -2.5498 C   0  0  0  0  0  0  0  0  0  0  0  0
   -2.8983    1.3426    0.3077 C   0  0  0  0  0  0  0  0  0  0  0  0
    3.3484    1.1213   -0.9081 C   0  0  0  0  0  0  0  0  0  0  0  0
   -3.8105    0.5415    2.5098 C   0  0  0  0  0  0  0  0  0  0  0  0
    5.0003    0.1691    0.7312 C   0  0  0  0  0  0  0  0  0  0  0  0
   -4.1126    0.9608   -0.5470 C   0  0  0  0  0  0  0  0  0  0  0  0
    3.0393    2.4085   -0.1346 C   0  0  0  0  0  0  0  0  0  0  0  0
   -3.6553   -0.3038    3.7664 C   0  0  0  0  0  0  0  0  0  0  0  0
    5.4584   -0.9824    1.6155 C   0  0  0  0  0  0  0  0  0  0  0  0
   -4.2833    1.8357   -1.7891 C   0  0  0  0  0  0  0  0  0  0  0  0
    2.6137    3.5714   -1.0313 C   0  0  0  0  0  0  0  0  0  0  0  0
   -5.5544    1.4816   -2.5458 C   0  0  0  0  0  0  0  0  0  0  0  0
    2.4165    4.8476   -0.2273 C   0  0  0  0  0  0  0  0  0  0  0  0
   -1.9975   -2.5947   -0.9569 H   0  0  0  0  0  0  0  0  0  0  0  0
   -1.0379   -3.2319    0.3831 H   0  0  0  0  0  0  0  0  0  0  0  0
    1.6235   -3.0032    0.2078 H   0  0  0  0  0  0  0  0  0  0  0  0
    2.2778   -2.2383   -1.2415 H   0  0  0  0  0  0  0  0  0  0  0  0
    0.2680   -1.6017    1.8234 H   0  0  0  0  0  0  0  0  0  0  0  0
    0.1097    0.1202    1.4480 H   0  0  0  0  0  0  0  0  0  0  0  0
   -3.1436   -1.4590    0.6851 H   0  0  0  0  0  0  0  0  0  0  0  0
   -2.0774   -1.6107    2.0614 H   0  0  0  0  0  0  0  0  0  0  0  0
    2.3481    0.1994    1.5784 H   0  0  0  0  0  0  0  0  0  0  0  0
    2.8437   -1.4680    1.4412 H   0  0  0  0  0  0  0  0  0  0  0  0
   -1.7601    0.8837    2.0627 H   0  0  0  0  0  0  0  0  0  0  0  0
    3.9432   -0.9304   -0.7569 H   0  0  0  0  0  0  0  0  0  0  0  0
    0.8334   -1.7293   -3.2330 H   0  0  0  0  0  0  0  0  0  0  0  0
   -0.9261   -1.8741   -3.1146 H   0  0  0  0  0  0  0  0  0  0  0  0
   -0.0863   -0.5752   -2.2639 H   0  0  0  0  0  0  0  0  0  0  0  0
   -2.0076    1.3644   -0.3329 H   0  0  0  0  0  0  0  0  0  0  0  0
   -3.0325    2.3750    0.6575 H   0  0  0  0  0  0  0  0  0  0  0  0
    4.1831    1.3214   -1.5933 H   0  0  0  0  0  0  0  0  0  0  0  0
    2.4926    0.8814   -1.5518 H   0  0  0  0  0  0  0  0  0  0  0  0
    0.3135   -4.5801   -1.0196 H   0  0  0  0  0  0  0  0  0  0  0  0
   -0.6313   -4.1957   -2.2904 H   0  0  0  0  0  0  0  0  0  0  0  0
   -3.9469    1.5891    2.8050 H   0  0  0  0  0  0  0  0  0  0  0  0
   -4.7374    0.2237    2.0211 H   0  0  0  0  0  0  0  0  0  0  0  0
    5.8026    0.4091    0.0226 H   0  0  0  0  0  0  0  0  0  0  0  0
    4.8746    1.0422    1.3798 H   0  0  0  0  0  0  0  0  0  0  0  0
   -5.0253    1.0389    0.0532 H   0  0  0  0  0  0  0  0  0  0  0  0
   -4.0287   -0.0832   -0.8682 H   0  0  0  0  0  0  0  0  0  0  0  0
    3.9237    2.7202    0.4313 H   0  0  0  0  0  0  0  0  0  0  0  0
    2.2419    2.2235    0.5935 H   0  0  0  0  0  0  0  0  0  0  0  0
   -3.7242   -1.3730    3.5458 H   0  0  0  0  0  0  0  0  0  0  0  0
   -4.4553   -0.0672    4.4757 H   0  0  0  0  0  0  0  0  0  0  0  0
   -2.6982   -0.1063    4.2590 H   0  0  0  0  0  0  0  0  0  0  0  0
    4.7907   -1.1269    2.4698 H   0  0  0  0  0  0  0  0  0  0  0  0
    6.4554   -0.7708    2.0159 H   0  0  0  0  0  0  0  0  0  0  0  0
    5.5135   -1.9171    1.0490 H   0  0  0  0  0  0  0  0  0  0  0  0
   -3.4182    1.7131   -2.4508 H   0  0  0  0  0  0  0  0  0  0  0  0
   -4.3224    2.8915   -1.4970 H   0  0  0  0  0  0  0  0  0  0  0  0
    1.6814    3.3184   -1.5491 H   0  0  0  0  0  0  0  0  0  0  0  0
    3.3757    3.7460   -1.7996 H   0  0  0  0  0  0  0  0  0  0  0  0
   -6.4397    1.6309   -1.9193 H   0  0  0  0  0  0  0  0  0  0  0  0
   -5.6557    2.1149   -3.4326 H   0  0  0  0  0  0  0  0  0  0  0  0
   -5.5373    0.4375   -2.8741 H   0  0  0  0  0  0  0  0  0  0  0  0
    3.3442    5.1453    0.2719 H   0  0  0  0  0  0  0  0  0  0  0  0
    2.1080    5.6658   -0.8857 H   0  0  0  0  0  0  0  0  0  0  0  0
    1.6425    4.7149    0.5353 H   0  0  0  0  0  0  0  0  0  0  0  0
  1  5  1  0  0  0  0
  1  7  1  0  0  0  0
  1  8  1  0  0  0  0
  2  6  1  0  0  0  0
  2  7  1  0  0  0  0
  2  9  1  0  0  0  0
  3  4  1  0  0  0  0
  3 44  1  0  0  0  0
  3 45  1  0  0  0  0
  4  5  1  0  0  0  0
  4  6  1  0  0  0  0
  4 12  1  0  0  0  0
  5 25  1  0  0  0  0
  5 26  1  0  0  0  0
  6 27  1  0  0  0  0
  6 28  1  0  0  0  0
  7 29  1  0  0  0  0
  7 30  1  0  0  0  0
  8 10  1  0  0  0  0
  8 31  1  0  0  0  0
  8 32  1  0  0  0  0
  9 11  1  0  0  0  0
  9 33  1  0  0  0  0
  9 34  1  0  0  0  0
 10 13  1  0  0  0  0
 10 15  1  0  0  0  0
 10 35  1  0  0  0  0
 11 14  1  0  0  0  0
 11 16  1  0  0  0  0
 11 36  1  0  0  0  0
 12 37  1  0  0  0  0
 12 38  1  0  0  0  0
 12 39  1  0  0  0  0
 13 17  1  0  0  0  0
 13 40  1  0  0  0  0
 13 41  1  0  0  0  0
 14 18  1  0  0  0  0
 14 42  1  0  0  0  0
 14 43  1  0  0  0  0
 15 19  1  0  0  0  0
 15 46  1  0  0  0  0
 15 47  1  0  0  0  0
 16 20  1  0  0  0  0
 16 48  1  0  0  0  0
 16 49  1  0  0  0  0
 17 21  1  0  0  0  0
 17 50  1  0  0  0  0
 17 51  1  0  0  0  0
 18 22  1  0  0  0  0
 18 52  1  0  0  0  0
 18 53  1  0  0  0  0
 19 54  1  0  0  0  0
 19 55  1  0  0  0  0
 19 56  1  0  0  0  0
 20 57  1  0  0  0  0
 20 58  1  0  0  0  0
 20 59  1  0  0  0  0
 21 23  1  0  0  0  0
 21 60  1  0  0  0  0
 21 61  1  0  0  0  0
 22 24  1  0  0  0  0
 22 62  1  0  0  0  0
 22 63  1  0  0  0  0
 23 64  1  0  0  0  0
 23 65  1  0  0  0  0
 23 66  1  0  0  0  0
 24 67  1  0  0  0  0
 24 68  1  0  0  0  0
 24 69  1  0  0  0  0
M  END
> <DATABASE_ID>
DB08958

> <DATABASE_NAME>
drugbank

> <ORIGINAL_SOURCE>
PUBCHEM

> <ORIGINAL_SOURCE_URL>
https://pubchem.ncbi.nlm.nih.gov/rest/pug/compound/inchikey/DTOUUUZOYKYHEP-UHFFFAOYSA-N/SDF?record_type=3d

> <SMILES>
CCCCC(CC)CN1CN(CC(CC)CCCC)CC(C)(N)C1

> <INCHI_IDENTIFIER>
InChI=1S/C21H45N3/c1-6-10-12-19(8-3)14-23-16-21(5,22)17-24(18-23)15-20(9-4)13-11-7-2/h19-20H,6-18,22H2,1-5H3

> <INCHI_KEY>
DTOUUUZOYKYHEP-UHFFFAOYSA-N

> <FORMULA>
C21H45N3

> <MOLECULAR_WEIGHT>
339.6021

> <EXACT_MASS>
339.361348455

> <JCHEM_ACCEPTOR_COUNT>
3

> <JCHEM_AVERAGE_POLARIZABILITY>
44.06833629768474

> <JCHEM_BIOAVAILABILITY>
0

> <JCHEM_DONOR_COUNT>
1

> <JCHEM_FORMAL_CHARGE>
0

> <JCHEM_GHOSE_FILTER>
0

> <JCHEM_IUPAC>
1,3-bis(2-ethylhexyl)-5-methyl-1,3-diazinan-5-amine

> <ALOGPS_LOGP>
4.98

> <JCHEM_LOGP>
5.735905588666666

> <ALOGPS_LOGS>
-4.76

> <JCHEM_MDDR_LIKE_RULE>
0

> <JCHEM_NUMBER_OF_RINGS>
1

> <JCHEM_PHYSIOLOGICAL_CHARGE>
1

> <JCHEM_PKA_STRONGEST_BASIC>
9.11705672914774

> <JCHEM_POLAR_SURFACE_AREA>
32.5

> <JCHEM_REFRACTIVITY>
107.40229999999998

> <JCHEM_ROTATABLE_BOND_COUNT>
12

> <JCHEM_RULE_OF_FIVE>
0

> <ALOGPS_SOLUBILITY>
5.94e-03 g/l

> <JCHEM_TRADITIONAL_IUPAC>
oraldene

> <JCHEM_VEBER_RULE>
0

$$$$

  Mrv1902 02111921292D          

 27 26  0  0  0  0            999 V2000
   -3.5708    0.0032    0.0000 C   0  0  0  0  0  0  0  0  0  0  0  0
   -2.8567   -0.4102    0.0000 C   0  0  0  0  0  0  0  0  0  0  0  0
   -2.1608    0.0056    0.0000 C   0  0  0  0  0  0  0  0  0  0  0  0
   -1.4468   -0.4077    0.0000 C   0  0  0  0  0  0  0  0  0  0  0  0
   -0.7341    0.0082    0.0000 C   0  0  0  0  0  0  0  0  0  0  0  0
   -0.0202   -0.4051    0.0000 C   0  0  0  0  0  0  0  0  0  0  0  0
   -4.2581   -0.4128    0.0000 C   0  0  0  0  0  0  0  0  0  0  0  0
    0.6922    0.0108    0.0000 O   0  0  0  0  0  0  0  0  0  0  0  0
    2.1213    0.0179    0.0000 O   0  0  0  0  0  0  0  0  0  0  0  0
    2.8358   -0.3946    0.0000 C   0  0  0  0  0  0  0  0  0  0  0  0
    3.5502    0.0179    0.0000 C   0  0  0  0  0  0  0  0  0  0  0  0
    4.2648   -0.3945    0.0000 N   0  3  0  0  0  0  0  0  0  0  0  0
    4.9792    0.0179    0.0000 C   0  0  0  0  0  0  0  0  0  0  0  0
    4.2648   -1.2195    0.0000 C   0  0  0  0  0  0  0  0  0  0  0  0
    4.9810   -0.8128    0.0000 C   0  0  0  0  0  0  0  0  0  0  0  0
    1.4088   -0.3981    0.0000 P   0  0  0  0  0  0  0  0  0  0  0  0
    1.4128   -1.2231    0.0000 O   0  0  0  0  0  0  0  0  0  0  0  0
    1.4088    0.4269    0.0000 O   0  5  0  0  0  0  0  0  0  0  0  0
   -4.9810   -0.0152    0.0000 C   0  0  0  0  0  0  0  0  0  0  0  0
   -1.4305    1.2181    0.0000 C   0  0  0  0  0  0  0  0  0  0  0  0
   -2.1446    0.8047    0.0000 C   0  0  0  0  0  0  0  0  0  0  0  0
   -2.8404    1.2205    0.0000 C   0  0  0  0  0  0  0  0  0  0  0  0
   -3.5544    0.8072    0.0000 C   0  0  0  0  0  0  0  0  0  0  0  0
   -4.2670    1.2231    0.0000 C   0  0  0  0  0  0  0  0  0  0  0  0
   -4.9810    0.8098    0.0000 C   0  0  0  0  0  0  0  0  0  0  0  0
   -0.7431    0.8021    0.0000 C   0  0  0  0  0  0  0  0  0  0  0  0
   -0.0202    1.1995    0.0000 C   0  0  0  0  0  0  0  0  0  0  0  0
  2  1  1  0  0  0  0
  7  1  1  0  0  0  0
  3  2  1  0  0  0  0
  4  3  1  0  0  0  0
  5  4  1  0  0  0  0
  6  5  1  0  0  0  0
  8  6  1  0  0  0  0
 10  9  1  0  0  0  0
 11 10  1  0  0  0  0
 12 11  1  0  0  0  0
 12 13  1  0  0  0  0
 12 14  1  0  0  0  0
 12 15  1  0  0  0  0
  8 16  1  0  0  0  0
 16  9  1  0  0  0  0
 16 17  2  0  0  0  0
 16 18  1  0  0  0  0
  7 19  1  0  0  0  0
 21 20  1  0  0  0  0
 26 20  1  0  0  0  0
 22 21  1  0  0  0  0
 23 22  1  0  0  0  0
 24 23  1  0  0  0  0
 25 24  1  0  0  0  0
 26 27  1  0  0  0  0
 19 25  1  0  0  0  0
M  CHG  2  12   1  18  -1
M  END
> <DATABASE_ID>
DB09031

> <DATABASE_NAME>
drugbank

> <SMILES>
CCCCCCCCCCCCCCCCOP([O-])(=O)OCC[N+](C)(C)C

> <INCHI_IDENTIFIER>
InChI=1S/C21H46NO4P/c1-5-6-7-8-9-10-11-12-13-14-15-16-17-18-20-25-27(23,24)26-21-19-22(2,3)4/h5-21H2,1-4H3

> <INCHI_KEY>
PQLXHQMOHUQAKB-UHFFFAOYSA-N

> <FORMULA>
C21H46NO4P

> <MOLECULAR_WEIGHT>
407.576

> <EXACT_MASS>
407.316445963

> <JCHEM_ACCEPTOR_COUNT>
2

> <JCHEM_ATOM_COUNT>
73

> <JCHEM_AVERAGE_POLARIZABILITY>
50.58768696219128

> <JCHEM_BIOAVAILABILITY>
1

> <JCHEM_DONOR_COUNT>
0

> <JCHEM_FORMAL_CHARGE>
0

> <JCHEM_GHOSE_FILTER>
0

> <JCHEM_IUPAC>
hexadecyl 2-(trimethylazaniumyl)ethyl phosphate

> <ALOGPS_LOGP>
2.68

> <JCHEM_LOGP>
2.2508485231949216

> <ALOGPS_LOGS>
-6.32

> <JCHEM_MDDR_LIKE_RULE>
0

> <JCHEM_NUMBER_OF_RINGS>
0

> <JCHEM_PHYSIOLOGICAL_CHARGE>
0

> <JCHEM_PKA_STRONGEST_ACIDIC>
1.8803148742183158

> <JCHEM_POLAR_SURFACE_AREA>
58.59

> <JCHEM_REFRACTIVITY>
125.51309999999997

> <JCHEM_ROTATABLE_BOND_COUNT>
20

> <JCHEM_RULE_OF_FIVE>
1

> <ALOGPS_SOLUBILITY>
2.20e-04 g/l

> <JCHEM_TRADITIONAL_IUPAC>
miltex

> <JCHEM_VEBER_RULE>
0

> <DRUGBANK_ID>
DB09031

> <DRUG_GROUPS>
approved; investigational

> <GENERIC_NAME>
Miltefosine

> <SYNONYMS>
HDPC; hexadecyl 2-(trimethylazaniumyl)ethyl phosphate; Hexadecylphosphocholine; Hexadecylphosphorylcholine; Miltefosin; Miltefosina; Miltéfosine; Miltefosine; Monohexadecylphosphocholine; Monohexadecylphosphorylcholine

> <PRODUCTS>
Impavido

> <INTERNATIONAL_BRANDS>
Miltex

$$$$
489181
  -OEChem-10051722013D

 47 49  0     1  0  0  0  0  0999 V2000
   -1.2950   -1.0667    2.1233 F   0  0  0  0  0  0  0  0  0  0  0  0
   -5.2711   -2.1678   -0.1935 F   0  0  0  0  0  0  0  0  0  0  0  0
    0.3026    0.3103   -1.5498 O   0  0  0  0  0  0  0  0  0  0  0  0
    2.3529   -0.6901    0.2407 N   0  0  0  0  0  0  0  0  0  0  0  0
   -0.8396    2.2294    0.4039 N   0  0  0  0  0  0  0  0  0  0  0  0
   -2.0486    2.2726    0.9540 N   0  0  0  0  0  0  0  0  0  0  0  0
   -1.6565    4.0445   -0.4385 N   0  0  0  0  0  0  0  0  0  0  0  0
    0.9946   -1.2223    0.1886 C   0  0  1  0  0  0  0  0  0  0  0  0
   -0.0397   -0.1139   -0.2217 C   0  0  1  0  0  0  0  0  0  0  0  0
    2.7689   -0.1718   -1.0739 C   0  0  0  0  0  0  0  0  0  0  0  0
    3.3012   -1.6726    0.7685 C   0  0  0  0  0  0  0  0  0  0  0  0
    0.0693    1.1243    0.7215 C   0  0  0  0  0  0  0  0  0  0  0  0
    4.2919   -0.1042   -1.2814 C   0  0  0  0  0  0  0  0  0  0  0  0
    4.6551   -1.0064    1.0630 C   0  0  0  0  0  0  0  0  0  0  0  0
    0.9976   -2.4291   -0.7605 C   0  0  0  0  0  0  0  0  0  0  0  0
   -1.4691   -0.6756   -0.2113 C   0  0  0  0  0  0  0  0  0  0  0  0
    5.0229    0.0224    0.0244 C   0  0  0  0  0  0  0  0  0  0  0  0
   -1.9922   -1.1154    0.9795 C   0  0  0  0  0  0  0  0  0  0  0  0
   -2.1613   -0.7129   -1.3967 C   0  0  0  0  0  0  0  0  0  0  0  0
    5.9006    1.0048    0.2722 C   0  0  0  0  0  0  0  0  0  0  0  0
   -3.2905   -1.6250    0.9856 C   0  0  0  0  0  0  0  0  0  0  0  0
   -3.4597   -1.2226   -1.3906 C   0  0  0  0  0  0  0  0  0  0  0  0
   -0.5989    3.2671   -0.4171 C   0  0  0  0  0  0  0  0  0  0  0  0
   -4.0243   -1.6786   -0.1995 C   0  0  0  0  0  0  0  0  0  0  0  0
   -2.5112    3.3998    0.4090 C   0  0  0  0  0  0  0  0  0  0  0  0
    0.7374   -1.5837    1.1914 H   0  0  0  0  0  0  0  0  0  0  0  0
    2.4400    0.8719   -1.1438 H   0  0  0  0  0  0  0  0  0  0  0  0
    2.4015   -0.7043   -1.9518 H   0  0  0  0  0  0  0  0  0  0  0  0
    3.4850   -2.4931    0.0642 H   0  0  0  0  0  0  0  0  0  0  0  0
    2.9338   -2.1188    1.7009 H   0  0  0  0  0  0  0  0  0  0  0  0
    1.0698    1.5697    0.6627 H   0  0  0  0  0  0  0  0  0  0  0  0
   -0.0982    0.8707    1.7741 H   0  0  0  0  0  0  0  0  0  0  0  0
    4.5356    0.7164   -1.9670 H   0  0  0  0  0  0  0  0  0  0  0  0
    4.6317   -1.0288   -1.7671 H   0  0  0  0  0  0  0  0  0  0  0  0
    5.4313   -1.7796    1.1083 H   0  0  0  0  0  0  0  0  0  0  0  0
    4.6073   -0.5264    2.0490 H   0  0  0  0  0  0  0  0  0  0  0  0
    1.2517   -2.2403   -1.8040 H   0  0  0  0  0  0  0  0  0  0  0  0
    1.6307   -3.2472   -0.4031 H   0  0  0  0  0  0  0  0  0  0  0  0
   -0.0062   -2.8711   -0.7859 H   0  0  0  0  0  0  0  0  0  0  0  0
    0.2497   -0.4440   -2.1587 H   0  0  0  0  0  0  0  0  0  0  0  0
   -1.7761   -0.3577   -2.3449 H   0  0  0  0  0  0  0  0  0  0  0  0
    6.3996    1.0818    1.2325 H   0  0  0  0  0  0  0  0  0  0  0  0
    6.1401    1.7502   -0.4786 H   0  0  0  0  0  0  0  0  0  0  0  0
   -3.7303   -1.9796    1.9130 H   0  0  0  0  0  0  0  0  0  0  0  0
   -4.0333   -1.2616   -2.3120 H   0  0  0  0  0  0  0  0  0  0  0  0
    0.3218    3.4181   -0.9629 H   0  0  0  0  0  0  0  0  0  0  0  0
   -3.5024    3.7624    0.6365 H   0  0  0  0  0  0  0  0  0  0  0  0
  1 18  1  0  0  0  0
  2 24  1  0  0  0  0
  3  9  1  0  0  0  0
  3 40  1  0  0  0  0
  4  8  1  0  0  0  0
  4 10  1  0  0  0  0
  4 11  1  0  0  0  0
  5  6  1  0  0  0  0
  5 12  1  0  0  0  0
  5 23  1  0  0  0  0
  6 25  2  0  0  0  0
  7 23  2  0  0  0  0
  7 25  1  0  0  0  0
  8  9  1  0  0  0  0
  8 15  1  0  0  0  0
  8 26  1  0  0  0  0
  9 12  1  0  0  0  0
  9 16  1  0  0  0  0
 10 13  1  0  0  0  0
 10 27  1  0  0  0  0
 10 28  1  0  0  0  0
 11 14  1  0  0  0  0
 11 29  1  0  0  0  0
 11 30  1  0  0  0  0
 12 31  1  0  0  0  0
 12 32  1  0  0  0  0
 13 17  1  0  0  0  0
 13 33  1  0  0  0  0
 13 34  1  0  0  0  0
 14 17  1  0  0  0  0
 14 35  1  0  0  0  0
 14 36  1  0  0  0  0
 15 37  1  0  0  0  0
 15 38  1  0  0  0  0
 15 39  1  0  0  0  0
 16 18  2  0  0  0  0
 16 19  1  0  0  0  0
 17 20  2  0  0  0  0
 18 21  1  0  0  0  0
 19 22  2  0  0  0  0
 19 41  1  0  0  0  0
 20 42  1  0  0  0  0
 20 43  1  0  0  0  0
 21 24  2  0  0  0  0
 21 44  1  0  0  0  0
 22 24  1  0  0  0  0
 22 45  1  0  0  0  0
 23 46  1  0  0  0  0
 25 47  1  0  0  0  0
M  END
> <DATABASE_ID>
DB09040

> <DATABASE_NAME>
drugbank

> <ORIGINAL_SOURCE>
PUBCHEM

> <ORIGINAL_SOURCE_URL>
https://pubchem.ncbi.nlm.nih.gov/rest/pug/compound/inchikey/NFEZZTICAUWDHU-RDTXWAMCSA-N/SDF?record_type=3d

> <SMILES>
C[C@@H](N1CCC(=C)CC1)[C@](O)(CN1C=NC=N1)C1=C(F)C=C(F)C=C1

> <INCHI_IDENTIFIER>
InChI=1S/C18H22F2N4O/c1-13-5-7-23(8-6-13)14(2)18(25,10-24-12-21-11-22-24)16-4-3-15(19)9-17(16)20/h3-4,9,11-12,14,25H,1,5-8,10H2,2H3/t14-,18-/m1/s1

> <INCHI_KEY>
NFEZZTICAUWDHU-RDTXWAMCSA-N

> <FORMULA>
C18H22F2N4O

> <MOLECULAR_WEIGHT>
348.398

> <EXACT_MASS>
348.17616767

> <JCHEM_ACCEPTOR_COUNT>
4

> <JCHEM_ATOM_COUNT>
47

> <JCHEM_AVERAGE_POLARIZABILITY>
34.48055029202555

> <JCHEM_BIOAVAILABILITY>
1

> <JCHEM_DONOR_COUNT>
1

> <JCHEM_FORMAL_CHARGE>
0

> <JCHEM_GHOSE_FILTER>
1

> <JCHEM_IUPAC>
(2R,3R)-2-(2,4-difluorophenyl)-3-(4-methylidenepiperidin-1-yl)-1-(1H-1,2,4-triazol-1-yl)butan-2-ol

> <ALOGPS_LOGP>
1.49

> <JCHEM_LOGP>
2.2428559576666665

> <ALOGPS_LOGS>
-2.76

> <JCHEM_MDDR_LIKE_RULE>
0

> <JCHEM_NUMBER_OF_RINGS>
3

> <JCHEM_PHYSIOLOGICAL_CHARGE>
1

> <JCHEM_PKA_STRONGEST_ACIDIC>
12.702722637855544

> <JCHEM_PKA_STRONGEST_BASIC>
7.454521573192589

> <JCHEM_POLAR_SURFACE_AREA>
54.18000000000001

> <JCHEM_REFRACTIVITY>
103.93899999999998

> <JCHEM_ROTATABLE_BOND_COUNT>
5

> <JCHEM_RULE_OF_FIVE>
1

> <ALOGPS_SOLUBILITY>
6.10e-01 g/l

> <JCHEM_TRADITIONAL_IUPAC>
(2R,3R)-2-(2,4-difluorophenyl)-3-(4-methylidenepiperidin-1-yl)-1-(1,2,4-triazol-1-yl)butan-2-ol

> <JCHEM_VEBER_RULE>
0

$$$$
 
  Mrv1533004231513282D          

 11 12  0  0  0  0            999 V2000
   15.6014  -18.1299    0.0000 C   0  0  0  0  0  0  0  0  0  0  0  0
   15.6014  -18.9549    0.0000 C   0  0  0  0  0  0  0  0  0  0  0  0
   16.3158  -19.3674    0.0000 C   0  0  0  0  0  0  0  0  0  0  0  0
   17.0303  -18.9549    0.0000 C   0  0  0  0  0  0  0  0  0  0  0  0
   17.0303  -18.1299    0.0000 C   0  0  0  0  0  0  0  0  0  0  0  0
   16.3158  -17.7174    0.0000 C   0  0  0  0  0  0  0  0  0  0  0  0
   14.8869  -19.3674    0.0000 F   0  0  0  0  0  0  0  0  0  0  0  0
   17.8150  -19.2098    0.0000 C   0  0  0  0  0  0  0  0  0  0  0  0
   18.2999  -18.5424    0.0000 O   0  0  0  0  0  0  0  0  0  0  0  0
   17.8150  -17.8750    0.0000 B   0  0  0  0  0  0  0  0  0  0  0  0
   18.0690  -17.0931    0.0000 O   0  0  0  0  0  0  0  0  0  0  0  0
  1  2  2  0  0  0  0
  2  3  1  0  0  0  0
  3  4  2  0  0  0  0
  4  5  1  0  0  0  0
  5  6  2  0  0  0  0
  1  6  1  0  0  0  0
  2  7  1  0  0  0  0
  4  8  1  0  0  0  0
  8  9  1  0  0  0  0
  9 10  1  0  0  0  0
  5 10  1  0  0  0  0
 10 11  1  0  0  0  0
M  END
> <DATABASE_ID>
DB09041

> <DATABASE_NAME>
drugbank

> <SMILES>
OB1OCC2=CC(F)=CC=C12

> <INCHI_IDENTIFIER>
InChI=1S/C7H6BFO2/c9-6-1-2-7-5(3-6)4-11-8(7)10/h1-3,10H,4H2

> <INCHI_KEY>
LFQDNHWZDQTITF-UHFFFAOYSA-N

> <FORMULA>
C7H6BFO2

> <MOLECULAR_WEIGHT>
151.93

> <EXACT_MASS>
152.044488

> <JCHEM_ACCEPTOR_COUNT>
2

> <JCHEM_ATOM_COUNT>
17

> <JCHEM_AVERAGE_POLARIZABILITY>
14.207719106662456

> <JCHEM_BIOAVAILABILITY>
1

> <JCHEM_DONOR_COUNT>
1

> <JCHEM_FORMAL_CHARGE>
0

> <JCHEM_GHOSE_FILTER>
0

> <JCHEM_IUPAC>
5-fluoro-1,3-dihydro-2,1-benzoxaborol-1-ol

> <ALOGPS_LOGP>
1.51

> <JCHEM_LOGP>
2.2371999999999996

> <ALOGPS_LOGS>
-1.13

> <JCHEM_MDDR_LIKE_RULE>
0

> <JCHEM_NUMBER_OF_RINGS>
2

> <JCHEM_PHYSIOLOGICAL_CHARGE>
0

> <JCHEM_PKA>
15.538352513154432

> <JCHEM_PKA_STRONGEST_ACIDIC>
8.914382285310808

> <JCHEM_PKA_STRONGEST_BASIC>
-4.835490669256251

> <JCHEM_POLAR_SURFACE_AREA>
29.46

> <JCHEM_REFRACTIVITY>
33.8568

> <JCHEM_ROTATABLE_BOND_COUNT>
0

> <JCHEM_RULE_OF_FIVE>
1

> <ALOGPS_SOLUBILITY>
1.13e+01 g/l

> <JCHEM_TRADITIONAL_IUPAC>
5-fluoro-3H-2,1-benzoxaborol-1-ol

> <JCHEM_VEBER_RULE>
1

> <DRUGBANK_ID>
DB09041

> <SECONDARY_ACCESSION_NUMBERS>
DB05058

> <DRUG_GROUPS>
approved; investigational

> <GENERIC_NAME>
Tavaborole

> <SYNONYMS>
5-Fluoro-1,3-dihydro-1-hydroxy-2,1-benzoxaborole; 5-Fluoro-2,1-benzoxaborol-1(3H)-ol; Tavaborole

> <PRODUCTS>
Kerydin

$$$$
54260
  -OEChem-10051722013D

 58 59  0     1  0  0  0  0  0999 V2000
   -4.7248   -1.6818   -0.1458 O   0  0  0  0  0  0  0  0  0  0  0  0
   -3.0740    0.6022    0.2461 N   0  0  0  0  0  0  0  0  0  0  0  0
   -1.8361    1.2527    0.6710 C   0  0  0  0  0  0  0  0  0  0  0  0
   -1.1611    2.0232   -0.4822 C   0  0  2  0  0  0  0  0  0  0  0  0
   -3.7172   -0.0830    1.3768 C   0  0  0  0  0  0  0  0  0  0  0  0
   -2.8138   -0.3560   -0.8383 C   0  0  0  0  0  0  0  0  0  0  0  0
   -5.0125   -0.7546    0.9067 C   0  0  2  0  0  0  0  0  0  0  0  0
   -4.1259   -1.0225   -1.2668 C   0  0  1  0  0  0  0  0  0  0  0  0
    0.1513    2.6930   -0.0157 C   0  0  0  0  0  0  0  0  0  0  0  0
    4.6623   -0.8988    0.2488 C   0  0  0  0  0  0  0  0  0  0  0  0
   -2.0935    3.0987   -1.0566 C   0  0  0  0  0  0  0  0  0  0  0  0
    1.3313    1.7539    0.0536 C   0  0  0  0  0  0  0  0  0  0  0  0
   -5.6706   -1.5298    2.0401 C   0  0  0  0  0  0  0  0  0  0  0  0
   -3.8821   -2.0700   -2.3445 C   0  0  0  0  0  0  0  0  0  0  0  0
    3.4972    0.0294    0.1806 C   0  0  0  0  0  0  0  0  0  0  0  0
    4.6184   -2.0231   -0.8579 C   0  0  0  0  0  0  0  0  0  0  0  0
    1.5871    1.0707    1.2317 C   0  0  0  0  0  0  0  0  0  0  0  0
    2.1368    1.5921   -1.0623 C   0  0  0  0  0  0  0  0  0  0  0  0
    4.8658   -1.6237    1.6240 C   0  0  0  0  0  0  0  0  0  0  0  0
    5.9929   -0.1069    0.0202 C   0  0  0  0  0  0  0  0  0  0  0  0
    2.6771    0.2027    1.2956 C   0  0  0  0  0  0  0  0  0  0  0  0
    3.2269    0.7241   -0.9984 C   0  0  0  0  0  0  0  0  0  0  0  0
    3.3645   -2.8923   -0.8266 C   0  0  0  0  0  0  0  0  0  0  0  0
   -1.1455    0.5052    1.0777 H   0  0  0  0  0  0  0  0  0  0  0  0
   -2.0577    1.9587    1.4819 H   0  0  0  0  0  0  0  0  0  0  0  0
   -0.8883    1.3473   -1.2996 H   0  0  0  0  0  0  0  0  0  0  0  0
   -3.9527    0.6388    2.1680 H   0  0  0  0  0  0  0  0  0  0  0  0
   -3.0373   -0.8360    1.7977 H   0  0  0  0  0  0  0  0  0  0  0  0
   -2.0936   -1.1170   -0.5090 H   0  0  0  0  0  0  0  0  0  0  0  0
   -2.4144    0.1315   -1.7314 H   0  0  0  0  0  0  0  0  0  0  0  0
   -5.7238   -0.0053    0.5351 H   0  0  0  0  0  0  0  0  0  0  0  0
   -4.8300   -0.2758   -1.6570 H   0  0  0  0  0  0  0  0  0  0  0  0
    0.0069    3.1802    0.9581 H   0  0  0  0  0  0  0  0  0  0  0  0
    0.4174    3.5100   -0.7007 H   0  0  0  0  0  0  0  0  0  0  0  0
   -3.0065    2.6630   -1.4741 H   0  0  0  0  0  0  0  0  0  0  0  0
   -1.6008    3.6478   -1.8665 H   0  0  0  0  0  0  0  0  0  0  0  0
   -2.3824    3.8220   -0.2864 H   0  0  0  0  0  0  0  0  0  0  0  0
   -5.0129   -2.3261    2.4057 H   0  0  0  0  0  0  0  0  0  0  0  0
   -5.9254   -0.8721    2.8766 H   0  0  0  0  0  0  0  0  0  0  0  0
   -6.5861   -2.0166    1.6870 H   0  0  0  0  0  0  0  0  0  0  0  0
   -4.8246   -2.5506   -2.6284 H   0  0  0  0  0  0  0  0  0  0  0  0
   -3.4344   -1.6257   -3.2386 H   0  0  0  0  0  0  0  0  0  0  0  0
   -3.2229   -2.8649   -1.9782 H   0  0  0  0  0  0  0  0  0  0  0  0
    5.4963   -2.6748   -0.7572 H   0  0  0  0  0  0  0  0  0  0  0  0
    4.6938   -1.5718   -1.8554 H   0  0  0  0  0  0  0  0  0  0  0  0
    0.9604    1.2043    2.1087 H   0  0  0  0  0  0  0  0  0  0  0  0
    1.9329    2.1264   -1.9858 H   0  0  0  0  0  0  0  0  0  0  0  0
    5.7286   -2.2998    1.5888 H   0  0  0  0  0  0  0  0  0  0  0  0
    3.9955   -2.2254    1.9062 H   0  0  0  0  0  0  0  0  0  0  0  0
    5.0559   -0.9042    2.4294 H   0  0  0  0  0  0  0  0  0  0  0  0
    6.0296    0.3545   -0.9729 H   0  0  0  0  0  0  0  0  0  0  0  0
    6.8667   -0.7635    0.1045 H   0  0  0  0  0  0  0  0  0  0  0  0
    6.1024    0.6949    0.7603 H   0  0  0  0  0  0  0  0  0  0  0  0
    2.8429   -0.3093    2.2370 H   0  0  0  0  0  0  0  0  0  0  0  0
    3.8482    0.6079   -1.8816 H   0  0  0  0  0  0  0  0  0  0  0  0
    3.2732   -3.4369    0.1170 H   0  0  0  0  0  0  0  0  0  0  0  0
    3.4105   -3.6348   -1.6304 H   0  0  0  0  0  0  0  0  0  0  0  0
    2.4561   -2.3019   -0.9766 H   0  0  0  0  0  0  0  0  0  0  0  0
  1  7  1  0  0  0  0
  1  8  1  0  0  0  0
  2  3  1  0  0  0  0
  2  5  1  0  0  0  0
  2  6  1  0  0  0  0
  3  4  1  0  0  0  0
  3 24  1  0  0  0  0
  3 25  1  0  0  0  0
  4  9  1  0  0  0  0
  4 11  1  0  0  0  0
  4 26  1  0  0  0  0
  5  7  1  0  0  0  0
  5 27  1  0  0  0  0
  5 28  1  0  0  0  0
  6  8  1  0  0  0  0
  6 29  1  0  0  0  0
  6 30  1  0  0  0  0
  7 13  1  0  0  0  0
  7 31  1  0  0  0  0
  8 14  1  0  0  0  0
  8 32  1  0  0  0  0
  9 12  1  0  0  0  0
  9 33  1  0  0  0  0
  9 34  1  0  0  0  0
 10 15  1  0  0  0  0
 10 16  1  0  0  0  0
 10 19  1  0  0  0  0
 10 20  1  0  0  0  0
 11 35  1  0  0  0  0
 11 36  1  0  0  0  0
 11 37  1  0  0  0  0
 12 17  2  0  0  0  0
 12 18  1  0  0  0  0
 13 38  1  0  0  0  0
 13 39  1  0  0  0  0
 13 40  1  0  0  0  0
 14 41  1  0  0  0  0
 14 42  1  0  0  0  0
 14 43  1  0  0  0  0
 15 21  2  0  0  0  0
 15 22  1  0  0  0  0
 16 23  1  0  0  0  0
 16 44  1  0  0  0  0
 16 45  1  0  0  0  0
 17 21  1  0  0  0  0
 17 46  1  0  0  0  0
 18 22  2  0  0  0  0
 18 47  1  0  0  0  0
 19 48  1  0  0  0  0
 19 49  1  0  0  0  0
 19 50  1  0  0  0  0
 20 51  1  0  0  0  0
 20 52  1  0  0  0  0
 20 53  1  0  0  0  0
 21 54  1  0  0  0  0
 22 55  1  0  0  0  0
 23 56  1  0  0  0  0
 23 57  1  0  0  0  0
 23 58  1  0  0  0  0
M  END
> <DATABASE_ID>
DB09056

> <DATABASE_NAME>
drugbank

> <ORIGINAL_SOURCE>
PUBCHEM

> <ORIGINAL_SOURCE_URL>
https://pubchem.ncbi.nlm.nih.gov/rest/pug/compound/inchikey/MQHLMHIZUIDKOO-AYHJJNSGSA-N/SDF?record_type=3d

> <SMILES>
[H]C(C)(CN1C[C@]([H])(C)O[C@]([H])(C)C1)CC1=CC=C(C=C1)C(C)(C)CC

> <INCHI_IDENTIFIER>
InChI=1S/C21H35NO/c1-7-21(5,6)20-10-8-19(9-11-20)12-16(2)13-22-14-17(3)23-18(4)15-22/h8-11,16-18H,7,12-15H2,1-6H3/t16?,17-,18+

> <INCHI_KEY>
MQHLMHIZUIDKOO-AYHJJNSGSA-N

> <FORMULA>
C21H35NO

> <MOLECULAR_WEIGHT>
317.517

> <EXACT_MASS>
317.271864751

> <JCHEM_ACCEPTOR_COUNT>
2

> <JCHEM_ATOM_COUNT>
58

> <JCHEM_AVERAGE_POLARIZABILITY>
40.22982056877301

> <JCHEM_BIOAVAILABILITY>
1

> <JCHEM_DONOR_COUNT>
0

> <JCHEM_FORMAL_CHARGE>
0

> <JCHEM_GHOSE_FILTER>
0

> <JCHEM_IUPAC>
(2R,6S)-2,6-dimethyl-4-(2-{[4-(2-methylbutan-2-yl)phenyl]methyl}propyl)morpholine

> <ALOGPS_LOGP>
5.44

> <JCHEM_LOGP>
5.617119812666667

> <ALOGPS_LOGS>
-5.61

> <JCHEM_MDDR_LIKE_RULE>
0

> <JCHEM_NUMBER_OF_RINGS>
2

> <JCHEM_PHYSIOLOGICAL_CHARGE>
1

> <JCHEM_PKA_STRONGEST_BASIC>
8.490758527201018

> <JCHEM_POLAR_SURFACE_AREA>
12.47

> <JCHEM_REFRACTIVITY>
99.60729999999998

> <JCHEM_ROTATABLE_BOND_COUNT>
6

> <JCHEM_RULE_OF_FIVE>
0

> <ALOGPS_SOLUBILITY>
7.85e-04 g/l

> <JCHEM_TRADITIONAL_IUPAC>
(2R,6S)-2,6-dimethyl-4-(2-{[4-(2-methylbutan-2-yl)phenyl]methyl}propyl)morpholine

> <JCHEM_VEBER_RULE>
1

$$$$
6918485
  -OEChem-12121822493D

 48 51  0     1  0  0  0  0  0999 V2000
    0.8700   -2.3018    2.1720 S   0  0  0  0  0  0  0  0  0  0  0  0
   -3.5901   -1.6254    1.5832 F   0  0  0  0  0  0  0  0  0  0  0  0
   -5.2083    0.2959   -3.2754 F   0  0  0  0  0  0  0  0  0  0  0  0
   -0.9237    0.3987   -1.0119 O   0  0  0  0  0  0  0  0  0  0  0  0
   -2.1189    1.8518    1.2285 N   0  0  0  0  0  0  0  0  0  0  0  0
    1.4192   -1.0320   -0.0117 N   0  0  0  0  0  0  0  0  0  0  0  0
   -1.3316    2.8639    0.8806 N   0  0  0  0  0  0  0  0  0  0  0  0
   -3.4812    3.5277    1.2950 N   0  0  0  0  0  0  0  0  0  0  0  0
    8.4374    1.5547   -1.5233 N   0  0  0  0  0  0  0  0  0  0  0  0
   -1.6502   -0.3345   -0.0158 C   0  0  1  0  0  0  0  0  0  0  0  0
   -0.9445   -1.7357    0.1749 C   0  0  1  0  0  0  0  0  0  0  0  0
   -1.5717    0.4935    1.3072 C   0  0  0  0  0  0  0  0  0  0  0  0
   -3.1117   -0.5099   -0.4569 C   0  0  0  0  0  0  0  0  0  0  0  0
   -0.9975   -2.6376   -1.0715 C   0  0  0  0  0  0  0  0  0  0  0  0
    0.5056   -1.6196    0.6707 C   0  0  0  0  0  0  0  0  0  0  0  0
   -3.9796   -1.1519    0.3912 C   0  0  0  0  0  0  0  0  0  0  0  0
   -3.4838   -0.0156   -1.6826 C   0  0  0  0  0  0  0  0  0  0  0  0
    2.5831   -1.1147    0.7276 C   0  0  0  0  0  0  0  0  0  0  0  0
   -4.8097   -0.1736   -2.0861 C   0  0  0  0  0  0  0  0  0  0  0  0
   -5.3055   -1.3096   -0.0124 C   0  0  0  0  0  0  0  0  0  0  0  0
   -3.3851    2.2308    1.4746 C   0  0  0  0  0  0  0  0  0  0  0  0
    2.4826   -1.7666    1.9388 C   0  0  0  0  0  0  0  0  0  0  0  0
   -5.7205   -0.8206   -1.2511 C   0  0  0  0  0  0  0  0  0  0  0  0
    3.8150   -0.5526    0.2543 C   0  0  0  0  0  0  0  0  0  0  0  0
   -2.2086    3.8685    0.9353 C   0  0  0  0  0  0  0  0  0  0  0  0
    5.0326   -1.1269    0.6229 C   0  0  0  0  0  0  0  0  0  0  0  0
    3.7981    0.5690   -0.5762 C   0  0  0  0  0  0  0  0  0  0  0  0
    6.2304   -0.5806    0.1623 C   0  0  0  0  0  0  0  0  0  0  0  0
    4.9962    1.1150   -1.0370 C   0  0  0  0  0  0  0  0  0  0  0  0
    6.2123    0.5402   -0.6676 C   0  0  0  0  0  0  0  0  0  0  0  0
    7.4395    1.0996   -1.1396 C   0  0  0  0  0  0  0  0  0  0  0  0
   -1.5034   -2.2842    0.9448 H   0  0  0  0  0  0  0  0  0  0  0  0
   -0.5263    0.6406    1.6058 H   0  0  0  0  0  0  0  0  0  0  0  0
   -2.0743    0.0021    2.1470 H   0  0  0  0  0  0  0  0  0  0  0  0
   -0.5008   -2.1637   -1.9251 H   0  0  0  0  0  0  0  0  0  0  0  0
   -2.0267   -2.8692   -1.3611 H   0  0  0  0  0  0  0  0  0  0  0  0
   -0.4892   -3.5905   -0.8837 H   0  0  0  0  0  0  0  0  0  0  0  0
   -1.2242    1.3227   -1.0126 H   0  0  0  0  0  0  0  0  0  0  0  0
   -2.8076    0.4864   -2.3648 H   0  0  0  0  0  0  0  0  0  0  0  0
   -6.0145   -1.8133    0.6381 H   0  0  0  0  0  0  0  0  0  0  0  0
   -4.1812    1.5667    1.7791 H   0  0  0  0  0  0  0  0  0  0  0  0
    3.2325   -1.9504    2.6957 H   0  0  0  0  0  0  0  0  0  0  0  0
   -6.7527   -0.9433   -1.5655 H   0  0  0  0  0  0  0  0  0  0  0  0
   -1.9114    4.8806    0.7049 H   0  0  0  0  0  0  0  0  0  0  0  0
    5.0873   -2.0108    1.2530 H   0  0  0  0  0  0  0  0  0  0  0  0
    2.8630    1.0376   -0.8738 H   0  0  0  0  0  0  0  0  0  0  0  0
    7.1706   -1.0419    0.4555 H   0  0  0  0  0  0  0  0  0  0  0  0
    4.9661    1.9896   -1.6824 H   0  0  0  0  0  0  0  0  0  0  0  0
  1 15  1  0  0  0  0
  1 22  1  0  0  0  0
  2 16  1  0  0  0  0
  3 19  1  0  0  0  0
  4 10  1  0  0  0  0
  4 38  1  0  0  0  0
  5  7  1  0  0  0  0
  5 12  1  0  0  0  0
  5 21  1  0  0  0  0
  6 15  2  0  0  0  0
  6 18  1  0  0  0  0
  7 25  2  0  0  0  0
  8 21  2  0  0  0  0
  8 25  1  0  0  0  0
  9 31  3  0  0  0  0
 10 11  1  0  0  0  0
 10 12  1  0  0  0  0
 10 13  1  0  0  0  0
 11 14  1  0  0  0  0
 11 15  1  0  0  0  0
 11 32  1  0  0  0  0
 12 33  1  0  0  0  0
 12 34  1  0  0  0  0
 13 16  2  0  0  0  0
 13 17  1  0  0  0  0
 14 35  1  0  0  0  0
 14 36  1  0  0  0  0
 14 37  1  0  0  0  0
 16 20  1  0  0  0  0
 17 19  2  0  0  0  0
 17 39  1  0  0  0  0
 18 22  2  0  0  0  0
 18 24  1  0  0  0  0
 19 23  1  0  0  0  0
 20 23  2  0  0  0  0
 20 40  1  0  0  0  0
 21 41  1  0  0  0  0
 22 42  1  0  0  0  0
 23 43  1  0  0  0  0
 24 26  2  0  0  0  0
 24 27  1  0  0  0  0
 25 44  1  0  0  0  0
 26 28  1  0  0  0  0
 26 45  1  0  0  0  0
 27 29  2  0  0  0  0
 27 46  1  0  0  0  0
 28 30  2  0  0  0  0
 28 47  1  0  0  0  0
 29 30  1  0  0  0  0
 29 48  1  0  0  0  0
 30 31  1  0  0  0  0
M  END
> <DATABASE_ID>
DB11633

> <DATABASE_NAME>
drugbank

> <ORIGINAL_SOURCE>
PUBCHEM

> <ORIGINAL_SOURCE_URL>
https://pubchem.ncbi.nlm.nih.gov/rest/pug/compound/inchikey/DDFOUSQFMYRUQK-RCDICMHDSA-N/SDF?record_type=3d

> <SMILES>
C[C@@H](C1=NC(=CS1)C1=CC=C(C=C1)C#N)[C@](O)(CN1C=NC=N1)C1=C(F)C=CC(F)=C1

> <INCHI_IDENTIFIER>
InChI=1S/C22H17F2N5OS/c1-14(21-28-20(10-31-21)16-4-2-15(9-25)3-5-16)22(30,11-29-13-26-12-27-29)18-8-17(23)6-7-19(18)24/h2-8,10,12-14,30H,11H2,1H3/t14-,22+/m0/s1

> <INCHI_KEY>
DDFOUSQFMYRUQK-RCDICMHDSA-N

> <FORMULA>
C22H17F2N5OS

> <MOLECULAR_WEIGHT>
437.47

> <EXACT_MASS>
437.112187687

> <JCHEM_ACCEPTOR_COUNT>
5

> <JCHEM_ATOM_COUNT>
48

> <JCHEM_AVERAGE_POLARIZABILITY>
42.74051045898345

> <JCHEM_BIOAVAILABILITY>
1

> <JCHEM_DONOR_COUNT>
1

> <JCHEM_FORMAL_CHARGE>
0

> <JCHEM_GHOSE_FILTER>
1

> <JCHEM_IUPAC>
4-{2-[(2R,3R)-3-(2,5-difluorophenyl)-3-hydroxy-4-(1H-1,2,4-triazol-1-yl)butan-2-yl]-1,3-thiazol-4-yl}benzonitrile

> <ALOGPS_LOGP>
3.46

> <JCHEM_LOGP>
4.143500234

> <ALOGPS_LOGS>
-4.43

> <JCHEM_MDDR_LIKE_RULE>
1

> <JCHEM_NUMBER_OF_RINGS>
4

> <JCHEM_PHYSIOLOGICAL_CHARGE>
0

> <JCHEM_PKA_STRONGEST_ACIDIC>
12.594493832783876

> <JCHEM_PKA_STRONGEST_BASIC>
2.3151066440715296

> <JCHEM_POLAR_SURFACE_AREA>
87.62

> <JCHEM_REFRACTIVITY>
123.94070000000002

> <JCHEM_ROTATABLE_BOND_COUNT>
6

> <JCHEM_RULE_OF_FIVE>
1

> <ALOGPS_SOLUBILITY>
1.62e-02 g/l

> <JCHEM_TRADITIONAL_IUPAC>
isavuconazole

> <JCHEM_VEBER_RULE>
0

$$$$
208952
  -OEChem-10051722403D

 46 49  0     1  0  0  0  0  0999 V2000
    7.6762    0.6450   -0.1946 Cl  0  0  0  0  0  0  0  0  0  0  0  0
   -2.1135   -0.8341    2.1104 F   0  0  0  0  0  0  0  0  0  0  0  0
   -6.4955   -1.5079    0.4572 F   0  0  0  0  0  0  0  0  0  0  0  0
   -0.8771   -0.0353   -1.8628 O   0  0  0  0  0  0  0  0  0  0  0  0
    1.4130   -0.3553    1.9488 O   0  0  0  0  0  0  0  0  0  0  0  0
    1.2399   -1.1579   -0.2332 N   0  0  0  0  0  0  0  0  0  0  0  0
   -1.4500    2.1949    0.0067 N   0  0  0  0  0  0  0  0  0  0  0  0
    3.1201   -1.1385   -1.6886 N   0  0  0  0  0  0  0  0  0  0  0  0
   -2.5482    2.4709    0.7024 N   0  0  0  0  0  0  0  0  0  0  0  0
   -2.1168    4.0353   -0.9098 N   0  0  0  0  0  0  0  0  0  0  0  0
   -1.0870   -0.2874   -0.4652 C   0  0  1  0  0  0  0  0  0  0  0  0
   -0.1668   -1.4966   -0.0831 C   0  0  1  0  0  0  0  0  0  0  0  0
   -0.6693    0.9942    0.3185 C   0  0  0  0  0  0  0  0  0  0  0  0
   -2.5629   -0.6217   -0.2110 C   0  0  0  0  0  0  0  0  0  0  0  0
   -0.4522   -2.7617   -0.8999 C   0  0  0  0  0  0  0  0  0  0  0  0
    1.9135   -0.5950    0.8542 C   0  0  0  0  0  0  0  0  0  0  0  0
   -2.9675   -0.8732    1.0778 C   0  0  0  0  0  0  0  0  0  0  0  0
   -3.4183   -0.6543   -1.2857 C   0  0  0  0  0  0  0  0  0  0  0  0
    1.8792   -1.3961   -1.4363 C   0  0  0  0  0  0  0  0  0  0  0  0
    3.3402   -0.2844    0.6053 C   0  0  0  0  0  0  0  0  0  0  0  0
    3.8828   -0.5691   -0.6551 C   0  0  0  0  0  0  0  0  0  0  0  0
   -4.3099   -1.1761    1.3058 C   0  0  0  0  0  0  0  0  0  0  0  0
   -4.7605   -0.9573   -1.0578 C   0  0  0  0  0  0  0  0  0  0  0  0
   -1.1873    3.1088   -0.9443 C   0  0  0  0  0  0  0  0  0  0  0  0
   -5.2064   -1.2181    0.2380 C   0  0  0  0  0  0  0  0  0  0  0  0
    4.1272    0.2827    1.6131 C   0  0  0  0  0  0  0  0  0  0  0  0
    5.2306   -0.2757   -0.8906 C   0  0  0  0  0  0  0  0  0  0  0  0
   -2.9216    3.6050    0.1059 C   0  0  0  0  0  0  0  0  0  0  0  0
    5.4684    0.5687    1.3618 C   0  0  0  0  0  0  0  0  0  0  0  0
    6.0195    0.2903    0.1123 C   0  0  0  0  0  0  0  0  0  0  0  0
   -0.3206   -1.7570    0.9707 H   0  0  0  0  0  0  0  0  0  0  0  0
    0.3553    1.2897    0.0656 H   0  0  0  0  0  0  0  0  0  0  0  0
   -0.7254    0.8698    1.4045 H   0  0  0  0  0  0  0  0  0  0  0  0
   -0.5759   -2.5806   -1.9722 H   0  0  0  0  0  0  0  0  0  0  0  0
    0.3199   -3.5263   -0.7547 H   0  0  0  0  0  0  0  0  0  0  0  0
   -1.3950   -3.2102   -0.5645 H   0  0  0  0  0  0  0  0  0  0  0  0
    0.0139    0.3362   -1.9745 H   0  0  0  0  0  0  0  0  0  0  0  0
   -3.1098   -0.4582   -2.3065 H   0  0  0  0  0  0  0  0  0  0  0  0
    1.2739   -1.8067   -2.2503 H   0  0  0  0  0  0  0  0  0  0  0  0
   -4.6570   -1.3786    2.3145 H   0  0  0  0  0  0  0  0  0  0  0  0
   -5.4594   -0.9900   -1.8885 H   0  0  0  0  0  0  0  0  0  0  0  0
   -0.3435    3.0692   -1.6188 H   0  0  0  0  0  0  0  0  0  0  0  0
    3.7156    0.5072    2.5930 H   0  0  0  0  0  0  0  0  0  0  0  0
    5.6623   -0.4926   -1.8659 H   0  0  0  0  0  0  0  0  0  0  0  0
   -3.8084    4.1343    0.4212 H   0  0  0  0  0  0  0  0  0  0  0  0
    6.0727    1.0094    2.1506 H   0  0  0  0  0  0  0  0  0  0  0  0
  1 30  1  0  0  0  0
  2 17  1  0  0  0  0
  3 25  1  0  0  0  0
  4 11  1  0  0  0  0
  4 37  1  0  0  0  0
  5 16  2  0  0  0  0
  6 12  1  0  0  0  0
  6 16  1  0  0  0  0
  6 19  1  0  0  0  0
  7  9  1  0  0  0  0
  7 13  1  0  0  0  0
  7 24  1  0  0  0  0
  8 19  2  0  0  0  0
  8 21  1  0  0  0  0
  9 28  2  0  0  0  0
 10 24  2  0  0  0  0
 10 28  1  0  0  0  0
 11 12  1  0  0  0  0
 11 13  1  0  0  0  0
 11 14  1  0  0  0  0
 12 15  1  0  0  0  0
 12 31  1  0  0  0  0
 13 32  1  0  0  0  0
 13 33  1  0  0  0  0
 14 17  2  0  0  0  0
 14 18  1  0  0  0  0
 15 34  1  0  0  0  0
 15 35  1  0  0  0  0
 15 36  1  0  0  0  0
 16 20  1  0  0  0  0
 17 22  1  0  0  0  0
 18 23  2  0  0  0  0
 18 38  1  0  0  0  0
 19 39  1  0  0  0  0
 20 21  2  0  0  0  0
 20 26  1  0  0  0  0
 21 27  1  0  0  0  0
 22 25  2  0  0  0  0
 22 40  1  0  0  0  0
 23 25  1  0  0  0  0
 23 41  1  0  0  0  0
 24 42  1  0  0  0  0
 26 29  2  0  0  0  0
 26 43  1  0  0  0  0
 27 30  2  0  0  0  0
 27 44  1  0  0  0  0
 28 45  1  0  0  0  0
 29 30  1  0  0  0  0
 29 46  1  0  0  0  0
M  END
> <DATABASE_ID>
DB12073

> <DATABASE_NAME>
drugbank

> <ORIGINAL_SOURCE>
PUBCHEM

> <ORIGINAL_SOURCE_URL>
https://pubchem.ncbi.nlm.nih.gov/rest/pug/compound/inchikey/UHIXWHUVLCAJQL-MPBGBICISA-N/SDF?record_type=3d

> <SMILES>
C[C@@H](N1C=NC2=CC(Cl)=CC=C2C1=O)[C@](O)(CN1C=NC=N1)C1=CC=C(F)C=C1F

> <INCHI_IDENTIFIER>
InChI=1S/C20H16ClF2N5O2/c1-12(28-11-25-18-6-13(21)2-4-15(18)19(28)29)20(30,8-27-10-24-9-26-27)16-5-3-14(22)7-17(16)23/h2-7,9-12,30H,8H2,1H3/t12-,20-/m1/s1

> <INCHI_KEY>
UHIXWHUVLCAJQL-MPBGBICISA-N

> <FORMULA>
C20H16ClF2N5O2

> <MOLECULAR_WEIGHT>
431.83

> <EXACT_MASS>
431.0960588

> <JCHEM_ACCEPTOR_COUNT>
5

> <JCHEM_ATOM_COUNT>
46

> <JCHEM_AVERAGE_POLARIZABILITY>
39.88596477175216

> <JCHEM_BIOAVAILABILITY>
1

> <JCHEM_DONOR_COUNT>
1

> <JCHEM_FORMAL_CHARGE>
0

> <JCHEM_GHOSE_FILTER>
1

> <JCHEM_IUPAC>
7-chloro-3-[(2R,3R)-3-(2,4-difluorophenyl)-3-hydroxy-4-(1H-1,2,4-triazol-1-yl)butan-2-yl]-3,4-dihydroquinazolin-4-one

> <ALOGPS_LOGP>
2.05

> <JCHEM_LOGP>
2.815409610333333

> <ALOGPS_LOGS>
-4.25

> <JCHEM_MDDR_LIKE_RULE>
0

> <JCHEM_NUMBER_OF_RINGS>
4

> <JCHEM_PHYSIOLOGICAL_CHARGE>
0

> <JCHEM_PKA_STRONGEST_ACIDIC>
12.597779326728752

> <JCHEM_PKA_STRONGEST_BASIC>
2.3815229959840614

> <JCHEM_POLAR_SURFACE_AREA>
83.60999999999999

> <JCHEM_REFRACTIVITY>
120.08369999999998

> <JCHEM_ROTATABLE_BOND_COUNT>
5

> <JCHEM_RULE_OF_FIVE>
1

> <ALOGPS_SOLUBILITY>
2.45e-02 g/l

> <JCHEM_TRADITIONAL_IUPAC>
albaconazole

> <JCHEM_VEBER_RULE>
0

$$$$
6303
  -OEChem-10051722413D

 31 33  0     1  0  0  0  0  0999 V2000
    2.1965    0.2856    0.9718 O   0  0  0  0  0  0  0  0  0  0  0  0
    1.2415   -2.5534   -0.9939 O   0  0  0  0  0  0  0  0  0  0  0  0
    4.1745    2.1904    0.3973 O   0  0  0  0  0  0  0  0  0  0  0  0
   -0.0195    0.1514    0.1438 N   0  0  0  0  0  0  0  0  0  0  0  0
   -1.3151    1.8574   -0.4728 N   0  0  0  0  0  0  0  0  0  0  0  0
   -1.7222   -1.5132    0.6236 N   0  0  0  0  0  0  0  0  0  0  0  0
   -3.9627   -0.6256    0.2376 N   0  0  0  0  0  0  0  0  0  0  0  0
   -4.3453    1.6120   -0.5198 N   0  0  0  0  0  0  0  0  0  0  0  0
    1.1958   -0.6022    0.4426 C   0  0  1  0  0  0  0  0  0  0  0  0
    1.8158   -1.2813   -0.7682 C   0  0  1  0  0  0  0  0  0  0  0  0
    3.2635   -1.3834   -0.3441 C   0  0  0  0  0  0  0  0  0  0  0  0
    3.4797   -0.0999    0.4426 C   0  0  1  0  0  0  0  0  0  0  0  0
    4.0156    1.0378   -0.4148 C   0  0  0  0  0  0  0  0  0  0  0  0
   -1.3059   -0.2973    0.2389 C   0  0  0  0  0  0  0  0  0  0  0  0
   -0.0767    1.4504   -0.2867 C   0  0  0  0  0  0  0  0  0  0  0  0
   -2.0936    0.7751   -0.1481 C   0  0  0  0  0  0  0  0  0  0  0  0
   -3.4709    0.5788   -0.1405 C   0  0  0  0  0  0  0  0  0  0  0  0
   -3.0709   -1.5827    0.5909 C   0  0  0  0  0  0  0  0  0  0  0  0
    0.9401   -1.3222    1.2300 H   0  0  0  0  0  0  0  0  0  0  0  0
    1.7243   -0.6772   -1.6785 H   0  0  0  0  0  0  0  0  0  0  0  0
    3.3995   -2.2542    0.3100 H   0  0  0  0  0  0  0  0  0  0  0  0
    3.9509   -1.5115   -1.1859 H   0  0  0  0  0  0  0  0  0  0  0  0
    4.1511   -0.2646    1.2926 H   0  0  0  0  0  0  0  0  0  0  0  0
    3.3277    1.2962   -1.2262 H   0  0  0  0  0  0  0  0  0  0  0  0
    4.9885    0.7838   -0.8459 H   0  0  0  0  0  0  0  0  0  0  0  0
    0.8075    2.0506   -0.4533 H   0  0  0  0  0  0  0  0  0  0  0  0
    0.2992   -2.4191   -1.1918 H   0  0  0  0  0  0  0  0  0  0  0  0
    3.3048    2.4020    0.7779 H   0  0  0  0  0  0  0  0  0  0  0  0
   -3.4995   -2.5340    0.8876 H   0  0  0  0  0  0  0  0  0  0  0  0
   -3.9808    2.5114   -0.8033 H   0  0  0  0  0  0  0  0  0  0  0  0
   -5.3422    1.4445   -0.5070 H   0  0  0  0  0  0  0  0  0  0  0  0
  1  9  1  0  0  0  0
  1 12  1  0  0  0  0
  2 10  1  0  0  0  0
  2 27  1  0  0  0  0
  3 13  1  0  0  0  0
  3 28  1  0  0  0  0
  4  9  1  0  0  0  0
  4 14  1  0  0  0  0
  4 15  1  0  0  0  0
  5 15  2  0  0  0  0
  5 16  1  0  0  0  0
  6 14  2  0  0  0  0
  6 18  1  0  0  0  0
  7 17  1  0  0  0  0
  7 18  2  0  0  0  0
  8 17  1  0  0  0  0
  8 30  1  0  0  0  0
  8 31  1  0  0  0  0
  9 10  1  0  0  0  0
  9 19  1  0  0  0  0
 10 11  1  0  0  0  0
 10 20  1  0  0  0  0
 11 12  1  0  0  0  0
 11 21  1  0  0  0  0
 11 22  1  0  0  0  0
 12 13  1  0  0  0  0
 12 23  1  0  0  0  0
 13 24  1  0  0  0  0
 13 25  1  0  0  0  0
 14 16  1  0  0  0  0
 15 26  1  0  0  0  0
 16 17  2  0  0  0  0
 18 29  1  0  0  0  0
M  END
> <DATABASE_ID>
DB12156

> <DATABASE_NAME>
drugbank

> <ORIGINAL_SOURCE>
PUBCHEM

> <ORIGINAL_SOURCE_URL>
https://pubchem.ncbi.nlm.nih.gov/rest/pug/compound/inchikey/OFEZSBMBBKLLBJ-BAJZRUMYSA-N/SDF?record_type=3d

> <SMILES>
[H][C@@]1(CO)C[C@@]([H])(O)[C@@]([H])(O1)N1C=NC2=C(N)N=CN=C12

> <INCHI_IDENTIFIER>
InChI=1S/C10H13N5O3/c11-8-7-9(13-3-12-8)15(4-14-7)10-6(17)1-5(2-16)18-10/h3-6,10,16-17H,1-2H2,(H2,11,12,13)/t5-,6+,10+/m0/s1

> <INCHI_KEY>
OFEZSBMBBKLLBJ-BAJZRUMYSA-N

> <FORMULA>
C10H13N5O3

> <MOLECULAR_WEIGHT>
251.2419

> <EXACT_MASS>
251.101839307

> <JCHEM_ACCEPTOR_COUNT>
7

> <JCHEM_AVERAGE_POLARIZABILITY>
24.14563025412037

> <JCHEM_BIOAVAILABILITY>
1

> <JCHEM_DONOR_COUNT>
3

> <JCHEM_FORMAL_CHARGE>
0

> <JCHEM_GHOSE_FILTER>
0

> <JCHEM_IUPAC>
(2R,3R,5S)-2-(6-amino-9H-purin-9-yl)-5-(hydroxymethyl)oxolan-3-ol

> <ALOGPS_LOGP>
-0.85

> <JCHEM_LOGP>
-1.4006691906666668

> <ALOGPS_LOGS>
-1.35

> <JCHEM_MDDR_LIKE_RULE>
0

> <JCHEM_NUMBER_OF_RINGS>
3

> <JCHEM_PHYSIOLOGICAL_CHARGE>
0

> <JCHEM_PKA>
14.706912091159193

> <JCHEM_PKA_STRONGEST_ACIDIC>
13.52749509396719

> <JCHEM_PKA_STRONGEST_BASIC>
4.988857701284418

> <JCHEM_POLAR_SURFACE_AREA>
119.31000000000002

> <JCHEM_REFRACTIVITY>
62.0985

> <JCHEM_ROTATABLE_BOND_COUNT>
2

> <JCHEM_RULE_OF_FIVE>
1

> <ALOGPS_SOLUBILITY>
1.13e+01 g/l

> <JCHEM_TRADITIONAL_IUPAC>
cordycepin

> <JCHEM_VEBER_RULE>
0

$$$$
456557
  -OEChem-10051722553D

 60 62  0     1  0  0  0  0  0999 V2000
    2.9556   -0.5116   -1.5224 O   0  0  0  0  0  0  0  0  0  0  0  0
    2.1763   -3.3733   -1.0836 O   0  0  0  0  0  0  0  0  0  0  0  0
    4.0995   -2.9831    0.8105 O   0  0  0  0  0  0  0  0  0  0  0  0
   -0.4892    1.6693   -1.3861 O   0  0  0  0  0  0  0  0  0  0  0  0
    1.7435    1.9097   -1.6538 O   0  0  0  0  0  0  0  0  0  0  0  0
   -0.3817    0.9269    2.0802 O   0  0  0  0  0  0  0  0  0  0  0  0
   -4.6631   -1.9362    1.2137 O   0  0  0  0  0  0  0  0  0  0  0  0
    6.7338   -0.9671   -1.5146 O   0  0  0  0  0  0  0  0  0  0  0  0
    7.3950    2.8317    1.0107 O   0  0  0  0  0  0  0  0  0  0  0  0
   -8.7354    0.9342   -2.3913 O   0  0  0  0  0  0  0  0  0  0  0  0
    4.9195   -0.1047   -0.3214 N   0  0  0  0  0  0  0  0  0  0  0  0
   -0.3040   -0.4183    0.1928 N   0  0  0  0  0  0  0  0  0  0  0  0
   -2.3435   -0.7410    3.1153 N   0  0  0  0  0  0  0  0  0  0  0  0
    7.0612    0.9242   -0.2558 N   0  0  0  0  0  0  0  0  0  0  0  0
   -5.6172   -0.3297   -0.9891 N   0  0  0  0  0  0  0  0  0  0  0  0
    1.6878   -1.0375   -1.0723 C   0  0  1  0  0  0  0  0  0  0  0  0
    2.0198   -2.2513   -0.2152 C   0  0  2  0  0  0  0  0  0  0  0  0
    3.3542   -1.8610    0.3842 C   0  0  2  0  0  0  0  0  0  0  0  0
    4.0143   -1.1246   -0.7687 C   0  0  1  0  0  0  0  0  0  0  0  0
    0.9638    0.0611   -0.3055 C   0  0  1  0  0  0  0  0  0  0  0  0
   -2.2183   -0.6119    1.6635 C   0  0  1  0  0  0  0  0  0  0  0  0
    0.7955    1.2931   -1.1790 C   0  0  0  0  0  0  0  0  0  0  0  0
   -3.4036    0.1583    1.0143 C   0  0  1  0  0  0  0  0  0  0  0  0
   -0.8793    0.0622    1.3617 C   0  0  0  0  0  0  0  0  0  0  0  0
    6.2663   -0.1166   -0.7542 C   0  0  0  0  0  0  0  0  0  0  0  0
    4.4714    0.8932    0.5363 C   0  0  0  0  0  0  0  0  0  0  0  0
   -4.7793   -0.5129    1.2944 C   0  0  1  0  0  0  0  0  0  0  0  0
   -3.4290    1.6375    1.4468 C   0  0  0  0  0  0  0  0  0  0  0  0
    5.2410    1.8788    1.0028 C   0  0  0  0  0  0  0  0  0  0  0  0
   -5.8669   -0.1117    0.3216 C   0  0  0  0  0  0  0  0  0  0  0  0
    6.6604    1.9387    0.5994 C   0  0  0  0  0  0  0  0  0  0  0  0
   -7.0393    0.4460    0.8055 C   0  0  0  0  0  0  0  0  0  0  0  0
   -8.0186    0.8030   -0.1148 C   0  0  0  0  0  0  0  0  0  0  0  0
   -6.5921    0.0300   -1.8539 C   0  0  0  0  0  0  0  0  0  0  0  0
   -7.7986    0.5943   -1.4718 C   0  0  0  0  0  0  0  0  0  0  0  0
    1.1189   -1.3147   -1.9683 H   0  0  0  0  0  0  0  0  0  0  0  0
    1.2736   -2.5203    0.5372 H   0  0  0  0  0  0  0  0  0  0  0  0
    3.1804   -1.2317    1.2619 H   0  0  0  0  0  0  0  0  0  0  0  0
    4.5264   -1.8280   -1.4350 H   0  0  0  0  0  0  0  0  0  0  0  0
    1.5298    0.3964    0.5638 H   0  0  0  0  0  0  0  0  0  0  0  0
   -0.8266   -1.0718   -0.3836 H   0  0  0  0  0  0  0  0  0  0  0  0
    1.3043   -3.5670   -1.4681 H   0  0  0  0  0  0  0  0  0  0  0  0
   -2.1834   -1.6274    1.2490 H   0  0  0  0  0  0  0  0  0  0  0  0
   -3.2187    0.1450   -0.0690 H   0  0  0  0  0  0  0  0  0  0  0  0
    3.5554   -3.4694    1.4531 H   0  0  0  0  0  0  0  0  0  0  0  0
    3.4384    0.8701    0.8384 H   0  0  0  0  0  0  0  0  0  0  0  0
   -5.0893   -0.2847    2.3216 H   0  0  0  0  0  0  0  0  0  0  0  0
   -4.2662    2.1652    0.9778 H   0  0  0  0  0  0  0  0  0  0  0  0
   -2.5190    2.1621    1.1410 H   0  0  0  0  0  0  0  0  0  0  0  0
   -3.5379    1.7382    2.5314 H   0  0  0  0  0  0  0  0  0  0  0  0
   -3.2023   -1.2388    3.3450 H   0  0  0  0  0  0  0  0  0  0  0  0
   -1.5818   -1.3162    3.4739 H   0  0  0  0  0  0  0  0  0  0  0  0
    8.0326    0.9353   -0.5537 H   0  0  0  0  0  0  0  0  0  0  0  0
    4.8563    2.6411    1.6690 H   0  0  0  0  0  0  0  0  0  0  0  0
   -0.5510    2.4703   -1.9487 H   0  0  0  0  0  0  0  0  0  0  0  0
   -5.5540   -2.3190    1.2897 H   0  0  0  0  0  0  0  0  0  0  0  0
   -7.2040    0.6064    1.8655 H   0  0  0  0  0  0  0  0  0  0  0  0
   -8.9478    1.2428    0.2367 H   0  0  0  0  0  0  0  0  0  0  0  0
   -6.3663   -0.1551   -2.8994 H   0  0  0  0  0  0  0  0  0  0  0  0
   -9.5045    1.3120   -1.9310 H   0  0  0  0  0  0  0  0  0  0  0  0
  1 16  1  0  0  0  0
  1 19  1  0  0  0  0
  2 17  1  0  0  0  0
  2 42  1  0  0  0  0
  3 18  1  0  0  0  0
  3 45  1  0  0  0  0
  4 22  1  0  0  0  0
  4 55  1  0  0  0  0
  5 22  2  0  0  0  0
  6 24  2  0  0  0  0
  7 27  1  0  0  0  0
  7 56  1  0  0  0  0
  8 25  2  0  0  0  0
  9 31  2  0  0  0  0
 10 35  1  0  0  0  0
 10 60  1  0  0  0  0
 11 19  1  0  0  0  0
 11 25  1  0  0  0  0
 11 26  1  0  0  0  0
 12 20  1  0  0  0  0
 12 24  1  0  0  0  0
 12 41  1  0  0  0  0
 13 21  1  0  0  0  0
 13 51  1  0  0  0  0
 13 52  1  0  0  0  0
 14 25  1  0  0  0  0
 14 31  1  0  0  0  0
 14 53  1  0  0  0  0
 15 30  2  0  0  0  0
 15 34  1  0  0  0  0
 16 17  1  0  0  0  0
 16 20  1  0  0  0  0
 16 36  1  0  0  0  0
 17 18  1  0  0  0  0
 17 37  1  0  0  0  0
 18 19  1  0  0  0  0
 18 38  1  0  0  0  0
 19 39  1  0  0  0  0
 20 22  1  0  0  0  0
 20 40  1  0  0  0  0
 21 23  1  0  0  0  0
 21 24  1  0  0  0  0
 21 43  1  0  0  0  0
 23 27  1  0  0  0  0
 23 28  1  0  0  0  0
 23 44  1  0  0  0  0
 26 29  2  0  0  0  0
 26 46  1  0  0  0  0
 27 30  1  0  0  0  0
 27 47  1  0  0  0  0
 28 48  1  0  0  0  0
 28 49  1  0  0  0  0
 28 50  1  0  0  0  0
 29 31  1  0  0  0  0
 29 54  1  0  0  0  0
 30 32  1  0  0  0  0
 32 33  2  0  0  0  0
 32 57  1  0  0  0  0
 33 35  1  0  0  0  0
 33 58  1  0  0  0  0
 34 35  2  0  0  0  0
 34 59  1  0  0  0  0
M  END
> <DATABASE_ID>
DB12939

> <DATABASE_NAME>
drugbank

> <ORIGINAL_SOURCE>
PUBCHEM

> <ORIGINAL_SOURCE_URL>
https://pubchem.ncbi.nlm.nih.gov/rest/pug/compound/inchikey/WWJFFVUVFNBJTN-VHDFTHOZSA-N/SDF?record_type=3d

> <SMILES>
C[C@@H]([C@H](N)C(=O)N[C@@H]([C@H]1O[C@H]([C@H](O)[C@@H]1O)N1C=CC(=O)NC1=O)C(O)=O)[C@H](O)C1=CC=C(O)C=N1

> <INCHI_IDENTIFIER>
InChI=1S/C20H25N5O10/c1-7(13(28)9-3-2-8(26)6-22-9)11(21)17(31)24-12(19(32)33)16-14(29)15(30)18(35-16)25-5-4-10(27)23-20(25)34/h2-7,11-16,18,26,28-30H,21H2,1H3,(H,24,31)(H,32,33)(H,23,27,34)/t7-,11-,12-,13-,14-,15+,16+,18+/m0/s1

> <INCHI_KEY>
WWJFFVUVFNBJTN-VHDFTHOZSA-N

> <FORMULA>
C20H25N5O10

> <MOLECULAR_WEIGHT>
495.445

> <EXACT_MASS>
495.160142025

> <JCHEM_ACCEPTOR_COUNT>
12

> <JCHEM_ATOM_COUNT>
60

> <JCHEM_AVERAGE_POLARIZABILITY>
46.27074907662167

> <JCHEM_BIOAVAILABILITY>
0

> <JCHEM_DONOR_COUNT>
8

> <JCHEM_FORMAL_CHARGE>
0

> <JCHEM_GHOSE_FILTER>
0

> <JCHEM_IUPAC>
(2S)-2-[(2S,3S,4S)-2-amino-4-hydroxy-4-(5-hydroxypyridin-2-yl)-3-methylbutanamido]-2-[(2R,3S,4R,5R)-5-(2,4-dioxo-1,2,3,4-tetrahydropyrimidin-1-yl)-3,4-dihydroxyoxolan-2-yl]acetic acid

> <ALOGPS_LOGP>
-1.21

> <JCHEM_LOGP>
-5.649640293748052

> <ALOGPS_LOGS>
-2.04

> <JCHEM_MDDR_LIKE_RULE>
1

> <JCHEM_NUMBER_OF_RINGS>
3

> <JCHEM_PHYSIOLOGICAL_CHARGE>
0

> <JCHEM_PKA>
8.762563337801057

> <JCHEM_PKA_STRONGEST_ACIDIC>
2.6059540645366353

> <JCHEM_PKA_STRONGEST_BASIC>
7.7681436275681355

> <JCHEM_POLAR_SURFACE_AREA>
244.86999999999998

> <JCHEM_REFRACTIVITY>
111.83559999999997

> <JCHEM_ROTATABLE_BOND_COUNT>
8

> <JCHEM_RULE_OF_FIVE>
0

> <ALOGPS_SOLUBILITY>
4.47e+00 g/l

> <JCHEM_TRADITIONAL_IUPAC>
nikkomycin

> <JCHEM_VEBER_RULE>
0

$$$$
92169693
  -OEChem-10061700203D

 44 47  0     1  0  0  0  0  0999 V2000
    1.4812   -3.8388   -0.9875 S   0  0  0  0  0  0  0  0  0  0  0  0
    0.7438   -1.3580   -1.4381 O   0  0  0  0  0  0  0  0  0  0  0  0
    1.9745   -1.6473    0.6275 N   0  0  0  0  0  0  0  0  0  0  0  0
   -3.4400   -0.4586    1.1672 C   0  0  1  0  0  0  0  0  0  0  0  0
   -3.7969    1.5254    0.1157 C   0  0  2  0  0  0  0  0  0  0  0  0
   -3.6475    1.0167    1.5631 C   0  0  0  0  0  0  0  0  0  0  0  0
   -4.7150   -0.7164    0.3380 C   0  0  0  0  0  0  0  0  0  0  0  0
   -4.9594    0.6415   -0.3819 C   0  0  0  0  0  0  0  0  0  0  0  0
   -2.2971   -0.2697    0.1990 C   0  0  0  0  0  0  0  0  0  0  0  0
   -2.5180    0.9582   -0.4517 C   0  0  0  0  0  0  0  0  0  0  0  0
   -1.2188   -1.0687   -0.1120 C   0  0  0  0  0  0  0  0  0  0  0  0
   -1.6664    1.4206   -1.4310 C   0  0  0  0  0  0  0  0  0  0  0  0
   -0.3420   -0.6067   -1.0973 C   0  0  0  0  0  0  0  0  0  0  0  0
   -0.5632    0.6237   -1.7493 C   0  0  0  0  0  0  0  0  0  0  0  0
    1.4189   -2.2285   -0.5249 C   0  0  0  0  0  0  0  0  0  0  0  0
    2.4578   -0.2851    0.6477 C   0  0  0  0  0  0  0  0  0  0  0  0
    2.0166   -2.3924    1.8921 C   0  0  0  0  0  0  0  0  0  0  0  0
    2.9706    0.2913   -0.5146 C   0  0  0  0  0  0  0  0  0  0  0  0
    2.4114    0.4533    1.8303 C   0  0  0  0  0  0  0  0  0  0  0  0
    3.4368    1.6057   -0.4942 C   0  0  0  0  0  0  0  0  0  0  0  0
    2.8774    1.7679    1.8505 C   0  0  0  0  0  0  0  0  0  0  0  0
    3.3902    2.3441    0.6883 C   0  0  0  0  0  0  0  0  0  0  0  0
    3.9850    2.2217   -1.7367 C   0  0  0  0  0  0  0  0  0  0  0  0
   -3.2466   -1.1489    1.9889 H   0  0  0  0  0  0  0  0  0  0  0  0
   -3.9217    2.6026    0.0006 H   0  0  0  0  0  0  0  0  0  0  0  0
   -2.7829    1.4483    2.0843 H   0  0  0  0  0  0  0  0  0  0  0  0
   -4.5469    1.1758    2.1687 H   0  0  0  0  0  0  0  0  0  0  0  0
   -5.5644   -0.9484    0.9902 H   0  0  0  0  0  0  0  0  0  0  0  0
   -4.5955   -1.5350   -0.3800 H   0  0  0  0  0  0  0  0  0  0  0  0
   -4.9657    0.5227   -1.4708 H   0  0  0  0  0  0  0  0  0  0  0  0
   -5.9252    1.0566   -0.0727 H   0  0  0  0  0  0  0  0  0  0  0  0
   -1.0828   -2.0183    0.3918 H   0  0  0  0  0  0  0  0  0  0  0  0
   -1.8404    2.3619   -1.9386 H   0  0  0  0  0  0  0  0  0  0  0  0
    0.1320    0.9596   -2.5152 H   0  0  0  0  0  0  0  0  0  0  0  0
    2.9890   -2.2525    2.3750 H   0  0  0  0  0  0  0  0  0  0  0  0
    1.8617   -3.4632    1.7457 H   0  0  0  0  0  0  0  0  0  0  0  0
    1.2097   -2.0365    2.5405 H   0  0  0  0  0  0  0  0  0  0  0  0
    3.0472   -0.2766   -1.4382 H   0  0  0  0  0  0  0  0  0  0  0  0
    2.0066    0.0482    2.7525 H   0  0  0  0  0  0  0  0  0  0  0  0
    2.8382    2.3443    2.7703 H   0  0  0  0  0  0  0  0  0  0  0  0
    3.7510    3.3688    0.7181 H   0  0  0  0  0  0  0  0  0  0  0  0
    5.0337    1.9366   -1.8665 H   0  0  0  0  0  0  0  0  0  0  0  0
    3.4183    1.8968   -2.6160 H   0  0  0  0  0  0  0  0  0  0  0  0
    3.9236    3.3147   -1.7020 H   0  0  0  0  0  0  0  0  0  0  0  0
  1 15  2  0  0  0  0
  2 13  1  0  0  0  0
  2 15  1  0  0  0  0
  3 15  1  0  0  0  0
  3 16  1  0  0  0  0
  3 17  1  0  0  0  0
  4  6  1  0  0  0  0
  4  7  1  0  0  0  0
  4  9  1  0  0  0  0
  4 24  1  0  0  0  0
  5  6  1  0  0  0  0
  5  8  1  0  0  0  0
  5 10  1  0  0  0  0
  5 25  1  0  0  0  0
  6 26  1  0  0  0  0
  6 27  1  0  0  0  0
  7  8  1  0  0  0  0
  7 28  1  0  0  0  0
  7 29  1  0  0  0  0
  8 30  1  0  0  0  0
  8 31  1  0  0  0  0
  9 10  2  0  0  0  0
  9 11  1  0  0  0  0
 10 12  1  0  0  0  0
 11 13  2  0  0  0  0
 11 32  1  0  0  0  0
 12 14  2  0  0  0  0
 12 33  1  0  0  0  0
 13 14  1  0  0  0  0
 14 34  1  0  0  0  0
 16 18  1  0  0  0  0
 16 19  2  0  0  0  0
 17 35  1  0  0  0  0
 17 36  1  0  0  0  0
 17 37  1  0  0  0  0
 18 20  2  0  0  0  0
 18 38  1  0  0  0  0
 19 21  1  0  0  0  0
 19 39  1  0  0  0  0
 20 22  1  0  0  0  0
 20 23  1  0  0  0  0
 21 22  2  0  0  0  0
 21 40  1  0  0  0  0
 22 41  1  0  0  0  0
 23 42  1  0  0  0  0
 23 43  1  0  0  0  0
 23 44  1  0  0  0  0
M  END
> <DATABASE_ID>
DB13360

> <DATABASE_NAME>
drugbank

> <ORIGINAL_SOURCE>
PUBCHEM

> <ORIGINAL_SOURCE_URL>
https://pubchem.ncbi.nlm.nih.gov/rest/pug/compound/inchikey/CANCCLAKQQHLNK-LSDHHAIUSA-N/SDF?record_type=3d

> <SMILES>
CN(C(=S)OC1=CC=C2[C@H]3CC[C@H](C3)C2=C1)C1=CC(C)=CC=C1

> <INCHI_IDENTIFIER>
InChI=1S/C20H21NOS/c1-13-4-3-5-16(10-13)21(2)20(23)22-17-8-9-18-14-6-7-15(11-14)19(18)12-17/h3-5,8-10,12,14-15H,6-7,11H2,1-2H3/t14-,15+/m0/s1

> <INCHI_KEY>
CANCCLAKQQHLNK-LSDHHAIUSA-N

> <FORMULA>
C20H21NOS

> <MOLECULAR_WEIGHT>
323.45

> <EXACT_MASS>
323.134385474

> <JCHEM_ACCEPTOR_COUNT>
1

> <JCHEM_ATOM_COUNT>
44

> <JCHEM_AVERAGE_POLARIZABILITY>
36.50557018472654

> <JCHEM_BIOAVAILABILITY>
1

> <JCHEM_DONOR_COUNT>
0

> <JCHEM_FORMAL_CHARGE>
0

> <JCHEM_GHOSE_FILTER>
0

> <JCHEM_IUPAC>
N-methyl-N-(3-methylphenyl)-1-[(1R,8S)-tricyclo[6.2.1.0^{2,7}]undeca-2,4,6-trien-4-yloxy]methanethioamide

> <ALOGPS_LOGP>
5.38

> <JCHEM_LOGP>
5.8735606413333326

> <ALOGPS_LOGS>
-5.94

> <JCHEM_MDDR_LIKE_RULE>
0

> <JCHEM_NUMBER_OF_RINGS>
4

> <JCHEM_PHYSIOLOGICAL_CHARGE>
0

> <JCHEM_PKA_STRONGEST_BASIC>
0.07639377484912035

> <JCHEM_POLAR_SURFACE_AREA>
12.47

> <JCHEM_REFRACTIVITY>
98.64639999999999

> <JCHEM_ROTATABLE_BOND_COUNT>
3

> <JCHEM_RULE_OF_FIVE>
0

> <ALOGPS_SOLUBILITY>
3.73e-04 g/l

> <JCHEM_TRADITIONAL_IUPAC>
N-methyl-N-(3-methylphenyl)-1-[(1R,8S)-tricyclo[6.2.1.0^{2,7}]undeca-2,4,6-trien-4-yloxy]methanethioamide

> <JCHEM_VEBER_RULE>
1

$$$$
3401
  -OEChem-10061700223D

 42 45  0     1  0  0  0  0  0999 V2000
    0.3985   -0.6795    2.4303 F   0  0  0  0  0  0  0  0  0  0  0  0
    4.9491    1.8574    0.2885 F   0  0  0  0  0  0  0  0  0  0  0  0
   -0.7599    0.0447   -1.6846 N   0  0  0  0  0  0  0  0  0  0  0  0
   -1.9719   -0.2694   -3.4119 N   0  0  0  0  0  0  0  0  0  0  0  0
   -0.3377    0.0161   -0.2081 C   0  0  2  0  0  0  0  0  0  0  0  0
    1.1737    0.5426   -0.0660 C   0  0  0  0  0  0  0  0  0  0  0  0
   -0.1169   -1.5040    0.2636 C   0  0  0  0  0  0  0  0  0  0  0  0
   -1.3955    0.7966    0.4966 C   0  0  0  0  0  0  0  0  0  0  0  0
    1.3385    1.6441    0.6802 C   0  0  0  0  0  0  0  0  0  0  0  0
    2.1036   -0.1781   -0.7093 C   0  0  0  0  0  0  0  0  0  0  0  0
    0.2303   -1.6738    1.5475 C   0  0  0  0  0  0  0  0  0  0  0  0
   -0.3043   -2.4369   -0.6817 C   0  0  0  0  0  0  0  0  0  0  0  0
   -0.0103    0.5571   -2.6333 C   0  0  0  0  0  0  0  0  0  0  0  0
   -1.5979    2.1401    0.1805 C   0  0  0  0  0  0  0  0  0  0  0  0
   -2.1825    0.1832    1.4712 C   0  0  0  0  0  0  0  0  0  0  0  0
   -1.9037   -0.4420   -2.1105 C   0  0  0  0  0  0  0  0  0  0  0  0
   -0.7943    0.3524   -3.7442 C   0  0  0  0  0  0  0  0  0  0  0  0
    2.6507    2.1009    0.8035 C   0  0  0  0  0  0  0  0  0  0  0  0
    3.4158    0.2785   -0.5861 C   0  0  0  0  0  0  0  0  0  0  0  0
    0.4215   -2.9947    1.9536 C   0  0  0  0  0  0  0  0  0  0  0  0
   -0.1129   -3.7575   -0.2755 C   0  0  0  0  0  0  0  0  0  0  0  0
   -2.5873    2.8702    0.8393 C   0  0  0  0  0  0  0  0  0  0  0  0
   -3.1719    0.9134    2.1298 C   0  0  0  0  0  0  0  0  0  0  0  0
    3.6894    1.4182    0.1705 C   0  0  0  0  0  0  0  0  0  0  0  0
    0.2500   -4.0364    1.0419 C   0  0  0  0  0  0  0  0  0  0  0  0
   -3.3742    2.2568    1.8138 C   0  0  0  0  0  0  0  0  0  0  0  0
    0.5901    2.1778    1.2433 H   0  0  0  0  0  0  0  0  0  0  0  0
    1.9283   -1.0542   -1.3195 H   0  0  0  0  0  0  0  0  0  0  0  0
   -0.5087   -2.3138   -1.7316 H   0  0  0  0  0  0  0  0  0  0  0  0
    0.9367    1.0693   -2.5595 H   0  0  0  0  0  0  0  0  0  0  0  0
   -1.0135    2.6424   -0.5860 H   0  0  0  0  0  0  0  0  0  0  0  0
   -2.1216   -0.8673    1.7261 H   0  0  0  0  0  0  0  0  0  0  0  0
   -2.6768   -0.9009   -1.5078 H   0  0  0  0  0  0  0  0  0  0  0  0
   -0.5778    0.6352   -4.7640 H   0  0  0  0  0  0  0  0  0  0  0  0
    2.8669    2.9803    1.4033 H   0  0  0  0  0  0  0  0  0  0  0  0
    4.2245   -0.2500   -1.0823 H   0  0  0  0  0  0  0  0  0  0  0  0
    0.7052   -3.2114    2.9793 H   0  0  0  0  0  0  0  0  0  0  0  0
   -0.2293   -4.5689   -0.9884 H   0  0  0  0  0  0  0  0  0  0  0  0
   -2.7480    3.9150    0.5901 H   0  0  0  0  0  0  0  0  0  0  0  0
   -3.7944    0.4332    2.8793 H   0  0  0  0  0  0  0  0  0  0  0  0
    0.4030   -5.0644    1.3571 H   0  0  0  0  0  0  0  0  0  0  0  0
   -4.1473    2.8242    2.3238 H   0  0  0  0  0  0  0  0  0  0  0  0
  1 11  1  0  0  0  0
  2 24  1  0  0  0  0
  3  5  1  0  0  0  0
  3 13  1  0  0  0  0
  3 16  1  0  0  0  0
  4 16  2  0  0  0  0
  4 17  1  0  0  0  0
  5  6  1  0  0  0  0
  5  7  1  0  0  0  0
  5  8  1  0  0  0  0
  6  9  2  0  0  0  0
  6 10  1  0  0  0  0
  7 11  1  0  0  0  0
  7 12  2  0  0  0  0
  8 14  2  0  0  0  0
  8 15  1  0  0  0  0
  9 18  1  0  0  0  0
  9 27  1  0  0  0  0
 10 19  2  0  0  0  0
 10 28  1  0  0  0  0
 11 20  2  0  0  0  0
 12 21  1  0  0  0  0
 12 29  1  0  0  0  0
 13 17  2  0  0  0  0
 13 30  1  0  0  0  0
 14 22  1  0  0  0  0
 14 31  1  0  0  0  0
 15 23  2  0  0  0  0
 15 32  1  0  0  0  0
 16 33  1  0  0  0  0
 17 34  1  0  0  0  0
 18 24  2  0  0  0  0
 18 35  1  0  0  0  0
 19 24  1  0  0  0  0
 19 36  1  0  0  0  0
 20 25  1  0  0  0  0
 20 37  1  0  0  0  0
 21 25  2  0  0  0  0
 21 38  1  0  0  0  0
 22 26  2  0  0  0  0
 22 39  1  0  0  0  0
 23 26  1  0  0  0  0
 23 40  1  0  0  0  0
 25 41  1  0  0  0  0
 26 42  1  0  0  0  0
M  END
> <DATABASE_ID>
DB13425

> <DATABASE_NAME>
drugbank

> <ORIGINAL_SOURCE>
PUBCHEM

> <ORIGINAL_SOURCE_URL>
https://pubchem.ncbi.nlm.nih.gov/rest/pug/compound/inchikey/QHMWCHQXCUNUAK-UHFFFAOYSA-N/SDF?record_type=3d

> <SMILES>
FC1=CC=C(C=C1)C(N1C=CN=C1)(C1=CC=CC=C1)C1=CC=CC=C1F

> <INCHI_IDENTIFIER>
InChI=1S/C22H16F2N2/c23-19-12-10-18(11-13-19)22(26-15-14-25-16-26,17-6-2-1-3-7-17)20-8-4-5-9-21(20)24/h1-16H

> <INCHI_KEY>
QHMWCHQXCUNUAK-UHFFFAOYSA-N

> <FORMULA>
C22H16F2N2

> <MOLECULAR_WEIGHT>
346.381

> <EXACT_MASS>
346.128154849

> <JCHEM_ACCEPTOR_COUNT>
1

> <JCHEM_ATOM_COUNT>
42

> <JCHEM_AVERAGE_POLARIZABILITY>
34.59153802306549

> <JCHEM_BIOAVAILABILITY>
1

> <JCHEM_DONOR_COUNT>
0

> <JCHEM_FORMAL_CHARGE>
0

> <JCHEM_GHOSE_FILTER>
1

> <JCHEM_IUPAC>
1-[(2-fluorophenyl)(4-fluorophenyl)phenylmethyl]-1H-imidazole

> <ALOGPS_LOGP>
4.73

> <JCHEM_LOGP>
5.520810867

> <ALOGPS_LOGS>
-5.59

> <JCHEM_MDDR_LIKE_RULE>
0

> <JCHEM_NUMBER_OF_RINGS>
4

> <JCHEM_PHYSIOLOGICAL_CHARGE>
0

> <JCHEM_PKA_STRONGEST_BASIC>
6.623542222318094

> <JCHEM_POLAR_SURFACE_AREA>
17.82

> <JCHEM_REFRACTIVITY>
99.3925

> <JCHEM_ROTATABLE_BOND_COUNT>
4

> <JCHEM_RULE_OF_FIVE>
0

> <ALOGPS_SOLUBILITY>
8.94e-04 g/l

> <JCHEM_TRADITIONAL_IUPAC>
flutrimazole

> <JCHEM_VEBER_RULE>
1

$$$$
51755
  -OEChem-10061700223D

 50 53  0     1  0  0  0  0  0999 V2000
   -4.4872    0.0852   -2.4376 Cl  0  0  0  0  0  0  0  0  0  0  0  0
   -6.3852    3.5529    1.2153 Cl  0  0  0  0  0  0  0  0  0  0  0  0
    4.6422    2.6480   -0.3607 S   0  0  0  0  0  0  0  0  0  0  0  0
   -1.2857   -0.4026   -0.0882 O   0  0  0  0  0  0  0  0  0  0  0  0
   -1.8892   -3.2293    0.3742 N   0  0  0  0  0  0  0  0  0  0  0  0
   -1.1972   -5.0899   -0.5889 N   0  0  0  0  0  0  0  0  0  0  0  0
   -2.6121   -0.8996   -0.1982 C   0  0  1  0  0  0  0  0  0  0  0  0
   -2.7646   -2.1174    0.7244 C   0  0  0  0  0  0  0  0  0  0  0  0
   -3.5739    0.2208    0.1267 C   0  0  0  0  0  0  0  0  0  0  0  0
   -1.0573    0.6768   -0.9858 C   0  0  0  0  0  0  0  0  0  0  0  0
   -4.4462    0.7142   -0.8307 C   0  0  0  0  0  0  0  0  0  0  0  0
   -3.5528    0.7358    1.4141 C   0  0  0  0  0  0  0  0  0  0  0  0
    0.3447    1.1611   -0.8317 C   0  0  0  0  0  0  0  0  0  0  0  0
   -0.6328   -3.4294    0.8470 C   0  0  0  0  0  0  0  0  0  0  0  0
   -2.1940   -4.2396   -0.4806 C   0  0  0  0  0  0  0  0  0  0  0  0
   -5.3190    1.7487   -0.4931 C   0  0  0  0  0  0  0  0  0  0  0  0
   -4.4255    1.7701    1.7515 C   0  0  0  0  0  0  0  0  0  0  0  0
    1.3633    0.6066   -1.6064 C   0  0  0  0  0  0  0  0  0  0  0  0
    0.6371    2.1696    0.0867 C   0  0  0  0  0  0  0  0  0  0  0  0
   -5.3087    2.2765    0.7979 C   0  0  0  0  0  0  0  0  0  0  0  0
   -0.2210   -4.5909    0.2368 C   0  0  0  0  0  0  0  0  0  0  0  0
    2.6745    1.0602   -1.4628 C   0  0  0  0  0  0  0  0  0  0  0  0
    1.9483    2.6234    0.2303 C   0  0  0  0  0  0  0  0  0  0  0  0
    2.9671    2.0687   -0.5444 C   0  0  0  0  0  0  0  0  0  0  0  0
    5.4784    1.1479    0.1331 C   0  0  0  0  0  0  0  0  0  0  0  0
    5.0919    0.4906    1.2983 C   0  0  0  0  0  0  0  0  0  0  0  0
    6.5133    0.6418   -0.6495 C   0  0  0  0  0  0  0  0  0  0  0  0
    5.7445   -0.6804    1.6838 C   0  0  0  0  0  0  0  0  0  0  0  0
    7.1657   -0.5294   -0.2641 C   0  0  0  0  0  0  0  0  0  0  0  0
    6.7813   -1.1903    0.9026 C   0  0  0  0  0  0  0  0  0  0  0  0
   -2.7265   -1.2743   -1.2195 H   0  0  0  0  0  0  0  0  0  0  0  0
   -2.5249   -1.8707    1.7658 H   0  0  0  0  0  0  0  0  0  0  0  0
   -3.7932   -2.4982    0.7041 H   0  0  0  0  0  0  0  0  0  0  0  0
   -1.2242    0.3453   -2.0187 H   0  0  0  0  0  0  0  0  0  0  0  0
   -1.7224    1.5275   -0.8034 H   0  0  0  0  0  0  0  0  0  0  0  0
   -2.8639    0.3667    2.1679 H   0  0  0  0  0  0  0  0  0  0  0  0
   -0.1495   -2.7623    1.5472 H   0  0  0  0  0  0  0  0  0  0  0  0
   -3.1423   -4.3118   -0.9956 H   0  0  0  0  0  0  0  0  0  0  0  0
   -6.0086    2.1449   -1.2356 H   0  0  0  0  0  0  0  0  0  0  0  0
   -4.4041    2.1741    2.7605 H   0  0  0  0  0  0  0  0  0  0  0  0
    1.1483   -0.1804   -2.3244 H   0  0  0  0  0  0  0  0  0  0  0  0
   -0.1474    2.6077    0.6982 H   0  0  0  0  0  0  0  0  0  0  0  0
    0.7292   -5.0923    0.3491 H   0  0  0  0  0  0  0  0  0  0  0  0
    3.4507    0.6168   -2.0815 H   0  0  0  0  0  0  0  0  0  0  0  0
    2.1574    3.4091    0.9523 H   0  0  0  0  0  0  0  0  0  0  0  0
    4.2908    0.8729    1.9259 H   0  0  0  0  0  0  0  0  0  0  0  0
    6.8256    1.1432   -1.5621 H   0  0  0  0  0  0  0  0  0  0  0  0
    5.4462   -1.1945    2.5928 H   0  0  0  0  0  0  0  0  0  0  0  0
    7.9730   -0.9268   -0.8723 H   0  0  0  0  0  0  0  0  0  0  0  0
    7.2895   -2.1020    1.2027 H   0  0  0  0  0  0  0  0  0  0  0  0
  1 11  1  0  0  0  0
  2 20  1  0  0  0  0
  3 24  1  0  0  0  0
  3 25  1  0  0  0  0
  4  7  1  0  0  0  0
  4 10  1  0  0  0  0
  5  8  1  0  0  0  0
  5 14  1  0  0  0  0
  5 15  1  0  0  0  0
  6 15  2  0  0  0  0
  6 21  1  0  0  0  0
  7  8  1  0  0  0  0
  7  9  1  0  0  0  0
  7 31  1  0  0  0  0
  8 32  1  0  0  0  0
  8 33  1  0  0  0  0
  9 11  2  0  0  0  0
  9 12  1  0  0  0  0
 10 13  1  0  0  0  0
 10 34  1  0  0  0  0
 10 35  1  0  0  0  0
 11 16  1  0  0  0  0
 12 17  2  0  0  0  0
 12 36  1  0  0  0  0
 13 18  2  0  0  0  0
 13 19  1  0  0  0  0
 14 21  2  0  0  0  0
 14 37  1  0  0  0  0
 15 38  1  0  0  0  0
 16 20  2  0  0  0  0
 16 39  1  0  0  0  0
 17 20  1  0  0  0  0
 17 40  1  0  0  0  0
 18 22  1  0  0  0  0
 18 41  1  0  0  0  0
 19 23  2  0  0  0  0
 19 42  1  0  0  0  0
 21 43  1  0  0  0  0
 22 24  2  0  0  0  0
 22 44  1  0  0  0  0
 23 24  1  0  0  0  0
 23 45  1  0  0  0  0
 25 26  2  0  0  0  0
 25 27  1  0  0  0  0
 26 28  1  0  0  0  0
 26 46  1  0  0  0  0
 27 29  2  0  0  0  0
 27 47  1  0  0  0  0
 28 30  2  0  0  0  0
 28 48  1  0  0  0  0
 29 30  1  0  0  0  0
 29 49  1  0  0  0  0
 30 50  1  0  0  0  0
M  END
> <DATABASE_ID>
DB13434

> <DATABASE_NAME>
drugbank

> <ORIGINAL_SOURCE>
PUBCHEM

> <ORIGINAL_SOURCE_URL>
https://pubchem.ncbi.nlm.nih.gov/rest/pug/compound/inchikey/ZCJYUTQZBAIHBS-UHFFFAOYSA-N/SDF?record_type=3d

> <SMILES>
ClC1=CC(Cl)=C(C=C1)C(CN1C=CN=C1)OCC1=CC=C(SC2=CC=CC=C2)C=C1

> <INCHI_IDENTIFIER>
InChI=1S/C24H20Cl2N2OS/c25-19-8-11-22(23(26)14-19)24(15-28-13-12-27-17-28)29-16-18-6-9-21(10-7-18)30-20-4-2-1-3-5-20/h1-14,17,24H,15-16H2

> <INCHI_KEY>
ZCJYUTQZBAIHBS-UHFFFAOYSA-N

> <FORMULA>
C24H20Cl2N2OS

> <MOLECULAR_WEIGHT>
455.4

> <EXACT_MASS>
454.0673398

> <JCHEM_ACCEPTOR_COUNT>
2

> <JCHEM_ATOM_COUNT>
50

> <JCHEM_AVERAGE_POLARIZABILITY>
47.63127587177988

> <JCHEM_BIOAVAILABILITY>
1

> <JCHEM_DONOR_COUNT>
0

> <JCHEM_FORMAL_CHARGE>
0

> <JCHEM_GHOSE_FILTER>
0

> <JCHEM_IUPAC>
1-[2-(2,4-dichlorophenyl)-2-{[4-(phenylsulfanyl)phenyl]methoxy}ethyl]-1H-imidazole

> <ALOGPS_LOGP>
6.31

> <JCHEM_LOGP>
6.937028471333333

> <ALOGPS_LOGS>
-6.17

> <JCHEM_MDDR_LIKE_RULE>
1

> <JCHEM_NUMBER_OF_RINGS>
4

> <JCHEM_PHYSIOLOGICAL_CHARGE>
1

> <JCHEM_PKA_STRONGEST_BASIC>
6.767291901775012

> <JCHEM_POLAR_SURFACE_AREA>
27.05

> <JCHEM_REFRACTIVITY>
126.14209999999996

> <JCHEM_ROTATABLE_BOND_COUNT>
8

> <JCHEM_RULE_OF_FIVE>
0

> <ALOGPS_SOLUBILITY>
3.04e-04 g/l

> <JCHEM_TRADITIONAL_IUPAC>
lomexin

> <JCHEM_VEBER_RULE>
1

$$$$
5282176
  -OEChem-10061700223D

 46 46  0     1  0  0  0  0  0999 V2000
   -3.9955   -1.6388    1.2651 O   0  0  0  0  0  0  0  0  0  0  0  0
    5.7162    2.2498    0.4582 O   0  0  0  0  0  0  0  0  0  0  0  0
   -3.5610    1.9675   -1.1020 O   0  0  0  0  0  0  0  0  0  0  0  0
   -4.6687    0.1159   -0.2166 N   0  0  0  0  0  0  0  0  0  0  0  0
   -6.7492   -0.7855   -0.7934 C   0  0  0  0  0  0  0  0  0  0  0  0
   -5.9508    0.4962   -0.7809 C   0  0  0  0  0  0  0  0  0  0  0  0
   -6.2613   -1.5063    0.4487 C   0  0  0  0  0  0  0  0  0  0  0  0
   -4.8193   -1.0677    0.5657 C   0  0  0  0  0  0  0  0  0  0  0  0
    5.9715    0.2226   -0.8093 C   0  0  0  0  0  0  0  0  0  0  0  0
    5.4424   -1.1544   -1.2244 C   0  0  0  0  0  0  0  0  0  0  0  0
    5.1557    0.9456    0.2741 C   0  0  2  0  0  0  0  0  0  0  0  0
    5.4464   -2.2230   -0.1291 C   0  0  0  0  0  0  0  0  0  0  0  0
   -3.5649    0.9633   -0.3902 C   0  0  0  0  0  0  0  0  0  0  0  0
    3.7067    1.1099   -0.1039 C   0  0  0  0  0  0  0  0  0  0  0  0
    4.9919   -3.5912   -0.6124 C   0  0  0  0  0  0  0  0  0  0  0  0
    2.6076    0.7090    0.5698 C   0  0  0  0  0  0  0  0  0  0  0  0
   -2.3439    0.6189    0.3614 C   0  0  0  0  0  0  0  0  0  0  0  0
    1.2923    0.9707   -0.0222 C   0  0  0  0  0  0  0  0  0  0  0  0
   -1.1555    0.9434   -0.1615 C   0  0  0  0  0  0  0  0  0  0  0  0
    2.6418    0.0079    1.9025 C   0  0  0  0  0  0  0  0  0  0  0  0
    0.0978    0.6463    0.5002 C   0  0  0  0  0  0  0  0  0  0  0  0
   -7.8293   -0.6155   -0.7928 H   0  0  0  0  0  0  0  0  0  0  0  0
   -6.4976   -1.3744   -1.6842 H   0  0  0  0  0  0  0  0  0  0  0  0
   -5.8339    0.9308   -1.7784 H   0  0  0  0  0  0  0  0  0  0  0  0
   -6.3993    1.2477   -0.1209 H   0  0  0  0  0  0  0  0  0  0  0  0
   -6.8011   -1.1788    1.3428 H   0  0  0  0  0  0  0  0  0  0  0  0
   -6.3329   -2.5916    0.3445 H   0  0  0  0  0  0  0  0  0  0  0  0
    6.0255    0.8599   -1.7027 H   0  0  0  0  0  0  0  0  0  0  0  0
    7.0101    0.1282   -0.4659 H   0  0  0  0  0  0  0  0  0  0  0  0
    6.0676   -1.5117   -2.0532 H   0  0  0  0  0  0  0  0  0  0  0  0
    4.4304   -1.0587   -1.6354 H   0  0  0  0  0  0  0  0  0  0  0  0
    5.2890    0.4140    1.2182 H   0  0  0  0  0  0  0  0  0  0  0  0
    6.4581   -2.3126    0.2840 H   0  0  0  0  0  0  0  0  0  0  0  0
    4.7943   -1.9123    0.6940 H   0  0  0  0  0  0  0  0  0  0  0  0
    3.5666    1.6232   -1.0566 H   0  0  0  0  0  0  0  0  0  0  0  0
    5.6450   -3.9608   -1.4091 H   0  0  0  0  0  0  0  0  0  0  0  0
    3.9688   -3.5476   -0.9990 H   0  0  0  0  0  0  0  0  0  0  0  0
    5.0154   -4.3126    0.2102 H   0  0  0  0  0  0  0  0  0  0  0  0
   -2.4223    0.1380    1.3276 H   0  0  0  0  0  0  0  0  0  0  0  0
    5.2290    2.6794    1.1823 H   0  0  0  0  0  0  0  0  0  0  0  0
    1.3054    1.4802   -0.9860 H   0  0  0  0  0  0  0  0  0  0  0  0
   -1.0911    1.4349   -1.1293 H   0  0  0  0  0  0  0  0  0  0  0  0
    2.1997   -0.9913    1.8214 H   0  0  0  0  0  0  0  0  0  0  0  0
    3.6482   -0.1245    2.3037 H   0  0  0  0  0  0  0  0  0  0  0  0
    2.0842    0.5799    2.6527 H   0  0  0  0  0  0  0  0  0  0  0  0
    0.0280    0.1371    1.4574 H   0  0  0  0  0  0  0  0  0  0  0  0
  1  8  2  0  0  0  0
  2 11  1  0  0  0  0
  2 40  1  0  0  0  0
  3 13  2  0  0  0  0
  4  6  1  0  0  0  0
  4  8  1  0  0  0  0
  4 13  1  0  0  0  0
  5  6  1  0  0  0  0
  5  7  1  0  0  0  0
  5 22  1  0  0  0  0
  5 23  1  0  0  0  0
  6 24  1  0  0  0  0
  6 25  1  0  0  0  0
  7  8  1  0  0  0  0
  7 26  1  0  0  0  0
  7 27  1  0  0  0  0
  9 10  1  0  0  0  0
  9 11  1  0  0  0  0
  9 28  1  0  0  0  0
  9 29  1  0  0  0  0
 10 12  1  0  0  0  0
 10 30  1  0  0  0  0
 10 31  1  0  0  0  0
 11 14  1  0  0  0  0
 11 32  1  0  0  0  0
 12 15  1  0  0  0  0
 12 33  1  0  0  0  0
 12 34  1  0  0  0  0
 13 17  1  0  0  0  0
 14 16  2  0  0  0  0
 14 35  1  0  0  0  0
 15 36  1  0  0  0  0
 15 37  1  0  0  0  0
 15 38  1  0  0  0  0
 16 18  1  0  0  0  0
 16 20  1  0  0  0  0
 17 19  2  0  0  0  0
 17 39  1  0  0  0  0
 18 21  2  0  0  0  0
 18 41  1  0  0  0  0
 19 21  1  0  0  0  0
 19 42  1  0  0  0  0
 20 43  1  0  0  0  0
 20 44  1  0  0  0  0
 20 45  1  0  0  0  0
 21 46  1  0  0  0  0
M  END
> <DATABASE_ID>
DB13459

> <DATABASE_NAME>
drugbank

> <ORIGINAL_SOURCE>
PUBCHEM

> <ORIGINAL_SOURCE_URL>
https://pubchem.ncbi.nlm.nih.gov/rest/pug/compound/inchikey/ZYPGADGCNXOUJP-CXVPHVKISA-N/SDF?record_type=3d

> <SMILES>
CCCC[C@@H](O)\C=C(/C)\C=C\C=C\C(=O)N1CCCC1=O

> <INCHI_IDENTIFIER>
InChI=1S/C17H25NO3/c1-3-4-9-15(19)13-14(2)8-5-6-10-16(20)18-12-7-11-17(18)21/h5-6,8,10,13,15,19H,3-4,7,9,11-12H2,1-2H3/b8-5+,10-6+,14-13+/t15-/m1/s1

> <INCHI_KEY>
ZYPGADGCNXOUJP-CXVPHVKISA-N

> <FORMULA>
C17H25NO3

> <MOLECULAR_WEIGHT>
291.391

> <EXACT_MASS>
291.183443669

> <JCHEM_ACCEPTOR_COUNT>
3

> <JCHEM_ATOM_COUNT>
46

> <JCHEM_AVERAGE_POLARIZABILITY>
33.93666222277183

> <JCHEM_BIOAVAILABILITY>
1

> <JCHEM_DONOR_COUNT>
1

> <JCHEM_FORMAL_CHARGE>
0

> <JCHEM_GHOSE_FILTER>
1

> <JCHEM_IUPAC>
1-[(2E,4E,6E,8R)-8-hydroxy-6-methyldodeca-2,4,6-trienoyl]pyrrolidin-2-one

> <ALOGPS_LOGP>
2.82

> <JCHEM_LOGP>
2.397183220333334

> <ALOGPS_LOGS>
-3.21

> <JCHEM_MDDR_LIKE_RULE>
0

> <JCHEM_NUMBER_OF_RINGS>
1

> <JCHEM_PHYSIOLOGICAL_CHARGE>
0

> <JCHEM_PKA_STRONGEST_ACIDIC>
18.092686763973152

> <JCHEM_PKA_STRONGEST_BASIC>
-1.442208138809054

> <JCHEM_POLAR_SURFACE_AREA>
57.61

> <JCHEM_REFRACTIVITY>
86.98369999999998

> <JCHEM_ROTATABLE_BOND_COUNT>
7

> <JCHEM_RULE_OF_FIVE>
1

> <ALOGPS_SOLUBILITY>
1.81e-01 g/l

> <JCHEM_TRADITIONAL_IUPAC>
supral

> <JCHEM_VEBER_RULE>
0

$$$$
5282200
  -OEChem-10061700253D

105105  0     1  0  0  0  0  0999 V2000
   -2.9152   -0.4368    2.0623 O   0  0  0  0  0  0  0  0  0  0  0  0
   -0.2319   -0.0427    1.3142 O   0  0  0  0  0  0  0  0  0  0  0  0
   -4.7937    3.0082    0.9489 O   0  0  0  0  0  0  0  0  0  0  0  0
    2.2891    1.6893   -1.6394 O   0  0  0  0  0  0  0  0  0  0  0  0
    3.4013    3.9772    1.8086 O   0  0  0  0  0  0  0  0  0  0  0  0
   -5.3381   -1.6445    0.6643 O   0  0  0  0  0  0  0  0  0  0  0  0
    5.8183    2.7514    2.7485 O   0  0  0  0  0  0  0  0  0  0  0  0
    7.8545    2.6470   -0.8210 O   0  0  0  0  0  0  0  0  0  0  0  0
   -4.9446   -0.5523   -1.3291 O   0  0  0  0  0  0  0  0  0  0  0  0
    9.5133    0.5133    0.0204 O   0  0  0  0  0  0  0  0  0  0  0  0
    8.8797   -2.0122   -1.1443 O   0  0  0  0  0  0  0  0  0  0  0  0
   -5.8286   -5.2733    0.3544 O   0  0  0  0  0  0  0  0  0  0  0  0
   -4.6768    0.6185    0.7909 C   0  0  1  0  0  0  0  0  0  0  0  0
   -3.1933    0.6756    1.2086 C   0  0  2  0  0  0  0  0  0  0  0  0
   -2.1844    0.6663    0.0450 C   0  0  0  0  0  0  0  0  0  0  0  0
   -0.7487    1.0038    0.4970 C   0  0  2  0  0  0  0  0  0  0  0  0
    0.1819    1.1683   -0.7126 C   0  0  0  0  0  0  0  0  0  0  0  0
   -5.1421    1.9094    0.1151 C   0  0  1  0  0  0  0  0  0  0  0  0
    1.6681    1.3994   -0.3838 C   0  0  2  0  0  0  0  0  0  0  0  0
    1.9071    2.5459    0.6051 C   0  0  0  0  0  0  0  0  0  0  0  0
    3.3596    3.0343    0.7357 C   0  0  2  0  0  0  0  0  0  0  0  0
   -6.6553    1.8977   -0.1045 C   0  0  0  0  0  0  0  0  0  0  0  0
    4.3880    1.9169    0.9925 C   0  0  0  0  0  0  0  0  0  0  0  0
    5.7822    2.4691    1.3452 C   0  0  2  0  0  0  0  0  0  0  0  0
    6.9129    1.4614    1.0655 C   0  0  0  0  0  0  0  0  0  0  0  0
   -7.1427    3.1775   -0.7925 C   0  0  0  0  0  0  0  0  0  0  0  0
   -4.9923   -0.5722   -0.1064 C   0  0  0  0  0  0  0  0  0  0  0  0
    7.2914    1.3901   -0.4229 C   0  0  2  0  0  0  0  0  0  0  0  0
    8.3391    0.3158   -0.7793 C   0  0  2  0  0  0  0  0  0  0  0  0
   -8.6536    3.1385   -1.0307 C   0  0  0  0  0  0  0  0  0  0  0  0
    7.8756   -1.1444   -0.6061 C   0  0  1  0  0  0  0  0  0  0  0  0
   -9.1354    4.3965   -1.7528 C   0  0  0  0  0  0  0  0  0  0  0  0
   -5.7503   -2.8605   -0.0031 C   0  0  1  0  0  0  0  0  0  0  0  0
    6.5571   -1.4641   -1.2942 C   0  0  0  0  0  0  0  0  0  0  0  0
   -5.3191   -4.0496    0.8793 C   0  0  2  0  0  0  0  0  0  0  0  0
  -10.6310    4.3465   -2.0213 C   0  0  0  0  0  0  0  0  0  0  0  0
   -7.2682   -2.8052   -0.1759 C   0  0  0  0  0  0  0  0  0  0  0  0
    6.5234   -1.2717   -2.7898 C   0  0  0  0  0  0  0  0  0  0  0  0
    5.5155   -1.8840   -0.5486 C   0  0  0  0  0  0  0  0  0  0  0  0
   -3.8350   -4.2205    1.0966 C   0  0  0  0  0  0  0  0  0  0  0  0
    4.1632   -2.1325   -0.9979 C   0  0  0  0  0  0  0  0  0  0  0  0
   -2.8586   -3.7393    0.3125 C   0  0  0  0  0  0  0  0  0  0  0  0
    3.2219   -2.6555   -0.1977 C   0  0  0  0  0  0  0  0  0  0  0  0
   -1.4534   -3.8500    0.6309 C   0  0  0  0  0  0  0  0  0  0  0  0
    1.8428   -2.8041   -0.6037 C   0  0  0  0  0  0  0  0  0  0  0  0
   -0.4965   -3.3633   -0.1727 C   0  0  0  0  0  0  0  0  0  0  0  0
    0.9026   -3.3393    0.1887 C   0  0  0  0  0  0  0  0  0  0  0  0
   -5.2710    0.4961    1.7089 H   0  0  0  0  0  0  0  0  0  0  0  0
   -3.0153    1.5646    1.8232 H   0  0  0  0  0  0  0  0  0  0  0  0
   -2.4882    1.3955   -0.7129 H   0  0  0  0  0  0  0  0  0  0  0  0
   -2.1787   -0.3291   -0.4164 H   0  0  0  0  0  0  0  0  0  0  0  0
   -0.7563    1.9274    1.0861 H   0  0  0  0  0  0  0  0  0  0  0  0
    0.1195    0.2696   -1.3422 H   0  0  0  0  0  0  0  0  0  0  0  0
   -0.1840    1.9919   -1.3404 H   0  0  0  0  0  0  0  0  0  0  0  0
   -4.6508    2.0522   -0.8548 H   0  0  0  0  0  0  0  0  0  0  0  0
    2.1140    0.4782    0.0066 H   0  0  0  0  0  0  0  0  0  0  0  0
    1.5397    2.2573    1.5982 H   0  0  0  0  0  0  0  0  0  0  0  0
    1.3006    3.4133    0.3103 H   0  0  0  0  0  0  0  0  0  0  0  0
    3.6352    3.5726   -0.1794 H   0  0  0  0  0  0  0  0  0  0  0  0
   -7.1655    1.8137    0.8638 H   0  0  0  0  0  0  0  0  0  0  0  0
   -6.9604    1.0374   -0.7098 H   0  0  0  0  0  0  0  0  0  0  0  0
    4.0338    1.2928    1.8230 H   0  0  0  0  0  0  0  0  0  0  0  0
    4.4417    1.2852    0.1007 H   0  0  0  0  0  0  0  0  0  0  0  0
    5.9689    3.4113    0.8209 H   0  0  0  0  0  0  0  0  0  0  0  0
    7.7941    1.7669    1.6444 H   0  0  0  0  0  0  0  0  0  0  0  0
    6.6209    0.4757    1.4453 H   0  0  0  0  0  0  0  0  0  0  0  0
   -6.6236    3.2960   -1.7514 H   0  0  0  0  0  0  0  0  0  0  0  0
   -6.8957    4.0527   -0.1800 H   0  0  0  0  0  0  0  0  0  0  0  0
    6.3995    1.2414   -1.0387 H   0  0  0  0  0  0  0  0  0  0  0  0
    8.6762    0.4735   -1.8115 H   0  0  0  0  0  0  0  0  0  0  0  0
   -8.9078    2.2543   -1.6281 H   0  0  0  0  0  0  0  0  0  0  0  0
   -9.1757    3.0410   -0.0711 H   0  0  0  0  0  0  0  0  0  0  0  0
   -3.5126   -0.3791    2.8273 H   0  0  0  0  0  0  0  0  0  0  0  0
   -0.7932   -0.1045    2.1053 H   0  0  0  0  0  0  0  0  0  0  0  0
   -3.8695    3.2430    0.7590 H   0  0  0  0  0  0  0  0  0  0  0  0
    2.1972    0.9010   -2.2017 H   0  0  0  0  0  0  0  0  0  0  0  0
    7.8301   -1.3781    0.4647 H   0  0  0  0  0  0  0  0  0  0  0  0
    4.2347    4.4724    1.7429 H   0  0  0  0  0  0  0  0  0  0  0  0
   -8.6041    4.5062   -2.7055 H   0  0  0  0  0  0  0  0  0  0  0  0
   -8.9063    5.2827   -1.1496 H   0  0  0  0  0  0  0  0  0  0  0  0
   -5.2982   -2.9424   -0.9990 H   0  0  0  0  0  0  0  0  0  0  0  0
    6.6648    3.1906    2.9383 H   0  0  0  0  0  0  0  0  0  0  0  0
    7.1248    3.2798   -0.9264 H   0  0  0  0  0  0  0  0  0  0  0  0
   -5.7545   -3.9104    1.8784 H   0  0  0  0  0  0  0  0  0  0  0  0
    9.3075    0.2489    0.9328 H   0  0  0  0  0  0  0  0  0  0  0  0
  -11.1949    4.2674   -1.0863 H   0  0  0  0  0  0  0  0  0  0  0  0
  -10.8882    3.4893   -2.6515 H   0  0  0  0  0  0  0  0  0  0  0  0
  -10.9542    5.2563   -2.5369 H   0  0  0  0  0  0  0  0  0  0  0  0
   -7.5591   -1.9022   -0.7239 H   0  0  0  0  0  0  0  0  0  0  0  0
   -7.6464   -3.6714   -0.7263 H   0  0  0  0  0  0  0  0  0  0  0  0
   -7.7710   -2.7560    0.7962 H   0  0  0  0  0  0  0  0  0  0  0  0
    8.5933   -2.9285   -0.9868 H   0  0  0  0  0  0  0  0  0  0  0  0
    5.6336   -1.6963   -3.2608 H   0  0  0  0  0  0  0  0  0  0  0  0
    6.5585   -0.2077   -3.0423 H   0  0  0  0  0  0  0  0  0  0  0  0
    7.3819   -1.7638   -3.2587 H   0  0  0  0  0  0  0  0  0  0  0  0
    5.6717   -2.0150    0.5217 H   0  0  0  0  0  0  0  0  0  0  0  0
   -3.5634   -4.7696    1.9973 H   0  0  0  0  0  0  0  0  0  0  0  0
   -6.7798   -5.3075    0.5517 H   0  0  0  0  0  0  0  0  0  0  0  0
    3.8970   -1.8348   -2.0073 H   0  0  0  0  0  0  0  0  0  0  0  0
   -3.1055   -3.2014   -0.5978 H   0  0  0  0  0  0  0  0  0  0  0  0
    3.4728   -2.9526    0.8182 H   0  0  0  0  0  0  0  0  0  0  0  0
   -1.1912   -4.3007    1.5851 H   0  0  0  0  0  0  0  0  0  0  0  0
    1.5709   -2.4111   -1.5811 H   0  0  0  0  0  0  0  0  0  0  0  0
   -0.7670   -2.9041   -1.1214 H   0  0  0  0  0  0  0  0  0  0  0  0
    1.1694   -3.7246    1.1701 H   0  0  0  0  0  0  0  0  0  0  0  0
  1 14  1  0  0  0  0
  1 73  1  0  0  0  0
  2 16  1  0  0  0  0
  2 74  1  0  0  0  0
  3 18  1  0  0  0  0
  3 75  1  0  0  0  0
  4 19  1  0  0  0  0
  4 76  1  0  0  0  0
  5 21  1  0  0  0  0
  5 78  1  0  0  0  0
  6 27  1  0  0  0  0
  6 33  1  0  0  0  0
  7 24  1  0  0  0  0
  7 82  1  0  0  0  0
  8 28  1  0  0  0  0
  8 83  1  0  0  0  0
  9 27  2  0  0  0  0
 10 29  1  0  0  0  0
 10 85  1  0  0  0  0
 11 31  1  0  0  0  0
 11 92  1  0  0  0  0
 12 35  1  0  0  0  0
 12 98  1  0  0  0  0
 13 14  1  0  0  0  0
 13 18  1  0  0  0  0
 13 27  1  0  0  0  0
 13 48  1  0  0  0  0
 14 15  1  0  0  0  0
 14 49  1  0  0  0  0
 15 16  1  0  0  0  0
 15 50  1  0  0  0  0
 15 51  1  0  0  0  0
 16 17  1  0  0  0  0
 16 52  1  0  0  0  0
 17 19  1  0  0  0  0
 17 53  1  0  0  0  0
 17 54  1  0  0  0  0
 18 22  1  0  0  0  0
 18 55  1  0  0  0  0
 19 20  1  0  0  0  0
 19 56  1  0  0  0  0
 20 21  1  0  0  0  0
 20 57  1  0  0  0  0
 20 58  1  0  0  0  0
 21 23  1  0  0  0  0
 21 59  1  0  0  0  0
 22 26  1  0  0  0  0
 22 60  1  0  0  0  0
 22 61  1  0  0  0  0
 23 24  1  0  0  0  0
 23 62  1  0  0  0  0
 23 63  1  0  0  0  0
 24 25  1  0  0  0  0
 24 64  1  0  0  0  0
 25 28  1  0  0  0  0
 25 65  1  0  0  0  0
 25 66  1  0  0  0  0
 26 30  1  0  0  0  0
 26 67  1  0  0  0  0
 26 68  1  0  0  0  0
 28 29  1  0  0  0  0
 28 69  1  0  0  0  0
 29 31  1  0  0  0  0
 29 70  1  0  0  0  0
 30 32  1  0  0  0  0
 30 71  1  0  0  0  0
 30 72  1  0  0  0  0
 31 34  1  0  0  0  0
 31 77  1  0  0  0  0
 32 36  1  0  0  0  0
 32 79  1  0  0  0  0
 32 80  1  0  0  0  0
 33 35  1  0  0  0  0
 33 37  1  0  0  0  0
 33 81  1  0  0  0  0
 34 38  1  0  0  0  0
 34 39  2  0  0  0  0
 35 40  1  0  0  0  0
 35 84  1  0  0  0  0
 36 86  1  0  0  0  0
 36 87  1  0  0  0  0
 36 88  1  0  0  0  0
 37 89  1  0  0  0  0
 37 90  1  0  0  0  0
 37 91  1  0  0  0  0
 38 93  1  0  0  0  0
 38 94  1  0  0  0  0
 38 95  1  0  0  0  0
 39 41  1  0  0  0  0
 39 96  1  0  0  0  0
 40 42  2  0  0  0  0
 40 97  1  0  0  0  0
 41 43  2  0  0  0  0
 41 99  1  0  0  0  0
 42 44  1  0  0  0  0
 42100  1  0  0  0  0
 43 45  1  0  0  0  0
 43101  1  0  0  0  0
 44 46  2  0  0  0  0
 44102  1  0  0  0  0
 45 47  2  0  0  0  0
 45103  1  0  0  0  0
 46 47  1  0  0  0  0
 46104  1  0  0  0  0
 47105  1  0  0  0  0
M  END
> <DATABASE_ID>
DB13571

> <DATABASE_NAME>
drugbank

> <ORIGINAL_SOURCE>
PUBCHEM

> <ORIGINAL_SOURCE_URL>
https://pubchem.ncbi.nlm.nih.gov/rest/pug/compound/inchikey/AGJUUQSLGVCRQA-SWOUQTJZSA-N/SDF?record_type=3d

> <SMILES>
CCCCC[C@@H](O)[C@@H]1[C@@H](O)C[C@@H](O)C[C@@H](O)C[C@@H](O)C[C@@H](O)C[C@@H](O)[C@@H](O)[C@H](O)\C(C)=C\C=C\C=C\C=C\C=C\[C@H](O)[C@@H](C)OC1=O

> <INCHI_IDENTIFIER>
InChI=1S/C35H58O12/c1-4-5-11-16-29(41)32-30(42)20-26(38)18-24(36)17-25(37)19-27(39)21-31(43)34(45)33(44)22(2)14-12-9-7-6-8-10-13-15-28(40)23(3)47-35(32)46/h6-10,12-15,23-34,36-45H,4-5,11,16-21H2,1-3H3/b7-6+,10-8+,12-9+,15-13+,22-14+/t23-,24+,25-,26+,27-,28+,29-,30+,31-,32-,33-,34-/m1/s1

> <INCHI_KEY>
AGJUUQSLGVCRQA-SWOUQTJZSA-N

> <FORMULA>
C35H58O12

> <MOLECULAR_WEIGHT>
670.837

> <EXACT_MASS>
670.392827308

> <JCHEM_ACCEPTOR_COUNT>
11

> <JCHEM_ATOM_COUNT>
105

> <JCHEM_AVERAGE_POLARIZABILITY>
74.30020763866222

> <JCHEM_BIOAVAILABILITY>
0

> <JCHEM_DONOR_COUNT>
10

> <JCHEM_FORMAL_CHARGE>
0

> <JCHEM_GHOSE_FILTER>
0

> <JCHEM_IUPAC>
(3R,4S,6S,8S,10R,12R,14R,15R,16R,17E,19E,21E,23E,25E,27S,28R)-4,6,8,10,12,14,15,16,27-nonahydroxy-3-[(1R)-1-hydroxyhexyl]-17,28-dimethyl-1-oxacyclooctacosa-17,19,21,23,25-pentaen-2-one

> <ALOGPS_LOGP>
0.07

> <JCHEM_LOGP>
-0.6812924829999973

> <ALOGPS_LOGS>
-3.51

> <JCHEM_MDDR_LIKE_RULE>
0

> <JCHEM_NUMBER_OF_RINGS>
1

> <JCHEM_PHYSIOLOGICAL_CHARGE>
0

> <JCHEM_PKA>
13.612657766518982

> <JCHEM_PKA_STRONGEST_ACIDIC>
12.88715692916012

> <JCHEM_PKA_STRONGEST_BASIC>
-2.758294189003185

> <JCHEM_POLAR_SURFACE_AREA>
228.59999999999997

> <JCHEM_REFRACTIVITY>
182.93140000000014

> <JCHEM_ROTATABLE_BOND_COUNT>
5

> <JCHEM_RULE_OF_FIVE>
0

> <ALOGPS_SOLUBILITY>
2.09e-01 g/l

> <JCHEM_TRADITIONAL_IUPAC>
pentamycin

> <JCHEM_VEBER_RULE>
0

$$$$
13916
  -OEChem-10061700263D

 22 23  0     0  0  0  0  0  0999 V2000
    1.9870   -0.3504    2.4458 Cl  0  0  0  0  0  0  0  0  0  0  0  0
   -3.6925    1.0816    0.1398 Cl  0  0  0  0  0  0  0  0  0  0  0  0
    0.4967    1.9560   -0.1046 O   0  5  0  0  0  0  0  0  0  0  0  0
   -1.6195    2.5169    0.0573 O   0  0  0  0  0  0  0  0  0  0  0  0
    3.2411    0.1484   -1.1873 N   0  0  0  0  0  0  0  0  0  0  0  0
   -0.7159    1.6569   -0.0356 N   0  3  0  0  0  0  0  0  0  0  0  0
   -0.0970   -0.7031   -0.1681 C   0  0  0  0  0  0  0  0  0  0  0  0
    1.3011   -0.3653   -0.2478 C   0  0  0  0  0  0  0  0  0  0  0  0
   -1.0839    0.2773   -0.0646 C   0  0  0  0  0  0  0  0  0  0  0  0
   -0.4536   -2.0513   -0.1965 C   0  0  0  0  0  0  0  0  0  0  0  0
    2.2605   -0.1930    0.7758 C   0  0  0  0  0  0  0  0  0  0  0  0
    1.9297   -0.1499   -1.4511 C   0  0  0  0  0  0  0  0  0  0  0  0
   -2.4272   -0.0906    0.0104 C   0  0  0  0  0  0  0  0  0  0  0  0
    3.4542    0.1246    0.1662 C   0  0  0  0  0  0  0  0  0  0  0  0
   -1.7970   -2.4192   -0.1214 C   0  0  0  0  0  0  0  0  0  0  0  0
   -2.7838   -1.4388   -0.0181 C   0  0  0  0  0  0  0  0  0  0  0  0
    0.3012   -2.8303   -0.2759 H   0  0  0  0  0  0  0  0  0  0  0  0
    1.5716   -0.1792   -2.4715 H   0  0  0  0  0  0  0  0  0  0  0  0
    4.4346    0.3360    0.5703 H   0  0  0  0  0  0  0  0  0  0  0  0
    3.9435    0.3541   -1.8844 H   0  0  0  0  0  0  0  0  0  0  0  0
   -2.0746   -3.4690   -0.1432 H   0  0  0  0  0  0  0  0  0  0  0  0
   -3.8259   -1.7431    0.0394 H   0  0  0  0  0  0  0  0  0  0  0  0
  1 11  1  0  0  0  0
  2 13  1  0  0  0  0
  3  6  1  0  0  0  0
  4  6  2  0  0  0  0
  5 12  1  0  0  0  0
  5 14  1  0  0  0  0
  5 20  1  0  0  0  0
  6  9  1  0  0  0  0
  7  8  1  0  0  0  0
  7  9  2  0  0  0  0
  7 10  1  0  0  0  0
  8 11  1  0  0  0  0
  8 12  2  0  0  0  0
  9 13  1  0  0  0  0
 10 15  2  0  0  0  0
 10 17  1  0  0  0  0
 11 14  2  0  0  0  0
 12 18  1  0  0  0  0
 13 16  2  0  0  0  0
 14 19  1  0  0  0  0
 15 16  1  0  0  0  0
 15 21  1  0  0  0  0
 16 22  1  0  0  0  0
M  CHG  2   3  -1   6   1
M  END
> <DATABASE_ID>
DB13603

> <DATABASE_NAME>
drugbank

> <ORIGINAL_SOURCE>
PUBCHEM

> <ORIGINAL_SOURCE_URL>
https://pubchem.ncbi.nlm.nih.gov/rest/pug/compound/inchikey/QJBZDBLBQWFTPZ-UHFFFAOYSA-N/SDF?record_type=3d

> <SMILES>
[O-][N+](=O)C1=C(Cl)C=CC=C1C1=CNC=C1Cl

> <INCHI_IDENTIFIER>
InChI=1S/C10H6Cl2N2O2/c11-8-3-1-2-6(10(8)14(15)16)7-4-13-5-9(7)12/h1-5,13H

> <INCHI_KEY>
QJBZDBLBQWFTPZ-UHFFFAOYSA-N

> <FORMULA>
C10H6Cl2N2O2

> <MOLECULAR_WEIGHT>
257.07

> <EXACT_MASS>
255.9806328

> <JCHEM_ACCEPTOR_COUNT>
2

> <JCHEM_ATOM_COUNT>
22

> <JCHEM_AVERAGE_POLARIZABILITY>
22.535194748895407

> <JCHEM_BIOAVAILABILITY>
1

> <JCHEM_DONOR_COUNT>
1

> <JCHEM_FORMAL_CHARGE>
0

> <JCHEM_GHOSE_FILTER>
1

> <JCHEM_IUPAC>
3-chloro-4-(3-chloro-2-nitrophenyl)-1H-pyrrole

> <ALOGPS_LOGP>
3.86

> <JCHEM_LOGP>
3.848428832666667

> <ALOGPS_LOGS>
-3.55

> <JCHEM_MDDR_LIKE_RULE>
0

> <JCHEM_NUMBER_OF_RINGS>
2

> <JCHEM_PHYSIOLOGICAL_CHARGE>
0

> <JCHEM_PKA_STRONGEST_ACIDIC>
15.061515816511207

> <JCHEM_POLAR_SURFACE_AREA>
58.93

> <JCHEM_REFRACTIVITY>
61.883100000000006

> <JCHEM_ROTATABLE_BOND_COUNT>
2

> <JCHEM_RULE_OF_FIVE>
1

> <ALOGPS_SOLUBILITY>
7.24e-02 g/l

> <JCHEM_TRADITIONAL_IUPAC>
pyrrolnitrin

> <JCHEM_VEBER_RULE>
0

$$$$
3033988
  -OEChem-10061700283D

 44 46  0     0  0  0  0  0  0999 V2000
    3.3247    0.0702    2.6443 Cl  0  0  0  0  0  0  0  0  0  0  0  0
    6.6242    3.0232   -0.4041 Cl  0  0  0  0  0  0  0  0  0  0  0  0
   -7.9166    1.5919   -0.1496 Cl  0  0  0  0  0  0  0  0  0  0  0  0
    0.6237    0.2572    0.3545 O   0  0  0  0  0  0  0  0  0  0  0  0
   -2.1516    0.5606    0.2726 O   0  0  0  0  0  0  0  0  0  0  0  0
    0.6246   -2.6350   -0.1077 N   0  0  0  0  0  0  0  0  0  0  0  0
   -0.6808   -4.3133   -0.5372 N   0  0  0  0  0  0  0  0  0  0  0  0
    1.7779   -0.4347    0.0132 C   0  0  0  0  0  0  0  0  0  0  0  0
    1.7866   -1.7935   -0.1536 C   0  0  0  0  0  0  0  0  0  0  0  0
    2.9675    0.4065   -0.0468 C   0  0  0  0  0  0  0  0  0  0  0  0
   -0.0208    0.7431   -0.8032 C   0  0  0  0  0  0  0  0  0  0  0  0
    3.1110   -2.5040   -0.4113 C   0  0  0  0  0  0  0  0  0  0  0  0
   -1.2872    1.4713   -0.3958 C   0  0  0  0  0  0  0  0  0  0  0  0
    3.7333    0.6923    1.0836 C   0  0  0  0  0  0  0  0  0  0  0  0
    3.3325    0.9297   -1.2873 C   0  0  0  0  0  0  0  0  0  0  0  0
   -0.4627   -2.3778    0.6220 C   0  0  0  0  0  0  0  0  0  0  0  0
    0.4920   -3.7756   -0.7891 C   0  0  0  0  0  0  0  0  0  0  0  0
    4.8641    1.5017    0.9734 C   0  0  0  0  0  0  0  0  0  0  0  0
    4.4631    1.7390   -1.3974 C   0  0  0  0  0  0  0  0  0  0  0  0
    5.2289    2.0250   -0.2671 C   0  0  0  0  0  0  0  0  0  0  0  0
   -1.2812   -3.4466    0.3414 C   0  0  0  0  0  0  0  0  0  0  0  0
   -3.4967    0.8012    0.1739 C   0  0  0  0  0  0  0  0  0  0  0  0
   -3.9540    2.1066    0.0332 C   0  0  0  0  0  0  0  0  0  0  0  0
   -4.3913   -0.2625    0.2157 C   0  0  0  0  0  0  0  0  0  0  0  0
   -5.3235    2.3516   -0.0669 C   0  0  0  0  0  0  0  0  0  0  0  0
   -5.7608   -0.0175    0.1153 C   0  0  0  0  0  0  0  0  0  0  0  0
   -6.2270    1.2896   -0.0260 C   0  0  0  0  0  0  0  0  0  0  0  0
    0.6164    1.4510   -1.3440 H   0  0  0  0  0  0  0  0  0  0  0  0
   -0.2815   -0.0876   -1.4711 H   0  0  0  0  0  0  0  0  0  0  0  0
    3.1888   -2.7870   -1.4666 H   0  0  0  0  0  0  0  0  0  0  0  0
    3.9955   -1.9125   -0.1636 H   0  0  0  0  0  0  0  0  0  0  0  0
    3.1779   -3.4117    0.1997 H   0  0  0  0  0  0  0  0  0  0  0  0
   -1.0409    2.2860    0.2949 H   0  0  0  0  0  0  0  0  0  0  0  0
   -1.7428    1.8777   -1.3074 H   0  0  0  0  0  0  0  0  0  0  0  0
    2.7574    0.7104   -2.1838 H   0  0  0  0  0  0  0  0  0  0  0  0
   -0.6016   -1.5507    1.3026 H   0  0  0  0  0  0  0  0  0  0  0  0
    1.2295   -4.1985   -1.4586 H   0  0  0  0  0  0  0  0  0  0  0  0
    5.4631    1.7263    1.8534 H   0  0  0  0  0  0  0  0  0  0  0  0
    4.7371    2.1376   -2.3708 H   0  0  0  0  0  0  0  0  0  0  0  0
   -2.2669   -3.6424    0.7377 H   0  0  0  0  0  0  0  0  0  0  0  0
   -3.2869    2.9629    0.0256 H   0  0  0  0  0  0  0  0  0  0  0  0
   -4.0322   -1.2818    0.3256 H   0  0  0  0  0  0  0  0  0  0  0  0
   -5.6733    3.3756   -0.1704 H   0  0  0  0  0  0  0  0  0  0  0  0
   -6.4530   -0.8550    0.1488 H   0  0  0  0  0  0  0  0  0  0  0  0
  1 14  1  0  0  0  0
  2 20  1  0  0  0  0
  3 27  1  0  0  0  0
  4  8  1  0  0  0  0
  4 11  1  0  0  0  0
  5 13  1  0  0  0  0
  5 22  1  0  0  0  0
  6  9  1  0  0  0  0
  6 16  1  0  0  0  0
  6 17  1  0  0  0  0
  7 17  2  0  0  0  0
  7 21  1  0  0  0  0
  8  9  2  0  0  0  0
  8 10  1  0  0  0  0
  9 12  1  0  0  0  0
 10 14  2  0  0  0  0
 10 15  1  0  0  0  0
 11 13  1  0  0  0  0
 11 28  1  0  0  0  0
 11 29  1  0  0  0  0
 12 30  1  0  0  0  0
 12 31  1  0  0  0  0
 12 32  1  0  0  0  0
 13 33  1  0  0  0  0
 13 34  1  0  0  0  0
 14 18  1  0  0  0  0
 15 19  2  0  0  0  0
 15 35  1  0  0  0  0
 16 21  2  0  0  0  0
 16 36  1  0  0  0  0
 17 37  1  0  0  0  0
 18 20  2  0  0  0  0
 18 38  1  0  0  0  0
 19 20  1  0  0  0  0
 19 39  1  0  0  0  0
 21 40  1  0  0  0  0
 22 23  2  0  0  0  0
 22 24  1  0  0  0  0
 23 25  1  0  0  0  0
 23 41  1  0  0  0  0
 24 26  2  0  0  0  0
 24 42  1  0  0  0  0
 25 27  2  0  0  0  0
 25 43  1  0  0  0  0
 26 27  1  0  0  0  0
 26 44  1  0  0  0  0
M  END
> <DATABASE_ID>
DB13684

> <DATABASE_NAME>
drugbank

> <ORIGINAL_SOURCE>
PUBCHEM

> <ORIGINAL_SOURCE_URL>
https://pubchem.ncbi.nlm.nih.gov/rest/pug/compound/inchikey/JMFOSJNGKJCTMJ-ZHZULCJRSA-N/SDF?record_type=3d

> <SMILES>
C\C(N1C=CN=C1)=C(\OCCOC1=CC=C(Cl)C=C1)C1=C(Cl)C=C(Cl)C=C1

> <INCHI_IDENTIFIER>
InChI=1S/C20H17Cl3N2O2/c1-14(25-9-8-24-13-25)20(18-7-4-16(22)12-19(18)23)27-11-10-26-17-5-2-15(21)3-6-17/h2-9,12-13H,10-11H2,1H3/b20-14-

> <INCHI_KEY>
JMFOSJNGKJCTMJ-ZHZULCJRSA-N

> <FORMULA>
C20H17Cl3N2O2

> <MOLECULAR_WEIGHT>
423.72

> <EXACT_MASS>
422.0355609

> <JCHEM_ACCEPTOR_COUNT>
3

> <JCHEM_ATOM_COUNT>
44

> <JCHEM_AVERAGE_POLARIZABILITY>
42.011120226602486

> <JCHEM_BIOAVAILABILITY>
1

> <JCHEM_DONOR_COUNT>
0

> <JCHEM_FORMAL_CHARGE>
0

> <JCHEM_GHOSE_FILTER>
1

> <JCHEM_IUPAC>
1-[(1Z)-1-[2-(4-chlorophenoxy)ethoxy]-1-(2,4-dichlorophenyl)prop-1-en-2-yl]-1H-imidazole

> <ALOGPS_LOGP>
5.87

> <JCHEM_LOGP>
5.074068729

> <ALOGPS_LOGS>
-5.66

> <JCHEM_MDDR_LIKE_RULE>
1

> <JCHEM_NUMBER_OF_RINGS>
3

> <JCHEM_PHYSIOLOGICAL_CHARGE>
0

> <JCHEM_PKA_STRONGEST_BASIC>
6.447188770629418

> <JCHEM_POLAR_SURFACE_AREA>
36.28

> <JCHEM_REFRACTIVITY>
110.79939999999996

> <JCHEM_ROTATABLE_BOND_COUNT>
7

> <JCHEM_RULE_OF_FIVE>
0

> <ALOGPS_SOLUBILITY>
9.18e-04 g/l

> <JCHEM_TRADITIONAL_IUPAC>
omoconazole

> <JCHEM_VEBER_RULE>
1

$$$$
6433427
  -OEChem-10061700293D

 30 31  0     1  0  0  0  0  0999 V2000
    5.9787   -1.0082   -0.0347 S   0  0  0  0  0  0  0  0  0  0  0  0
    3.6473    0.7897    0.9202 O   0  0  0  0  0  0  0  0  0  0  0  0
    2.5323    2.6809    0.2680 O   0  0  0  0  0  0  0  0  0  0  0  0
   -2.8983   -0.5210    0.2725 O   0  0  0  0  0  0  0  0  0  0  0  0
   -6.3585   -0.5656   -0.2309 O   0  5  0  0  0  0  0  0  0  0  0  0
   -5.0322   -1.8973    0.9032 O   0  0  0  0  0  0  0  0  0  0  0  0
    1.5531    0.5635    0.2036 N   0  0  0  0  0  0  0  0  0  0  0  0
    0.3391    0.9217   -0.2342 N   0  0  0  0  0  0  0  0  0  0  0  0
   -5.1982   -0.8799    0.1674 N   0  3  0  0  0  0  0  0  0  0  0  0
    3.3991   -0.6307    0.8167 C   0  0  1  0  0  0  0  0  0  0  0  0
    1.8991   -0.7536    0.6156 C   0  0  0  0  0  0  0  0  0  0  0  0
    4.2035   -1.1803   -0.3526 C   0  0  0  0  0  0  0  0  0  0  0  0
    2.5560    1.4698    0.4344 C   0  0  0  0  0  0  0  0  0  0  0  0
   -0.6092    0.1378    0.1669 C   0  0  0  0  0  0  0  0  0  0  0  0
   -1.9978    0.3581   -0.2021 C   0  0  0  0  0  0  0  0  0  0  0  0
    6.5961   -1.7351   -1.5705 C   0  0  0  0  0  0  0  0  0  0  0  0
   -2.5634    1.3251   -0.9652 C   0  0  0  0  0  0  0  0  0  0  0  0
   -4.0996   -0.1033   -0.2056 C   0  0  0  0  0  0  0  0  0  0  0  0
   -3.9472    1.0284   -0.9726 C   0  0  0  0  0  0  0  0  0  0  0  0
    3.6955   -1.1137    1.7555 H   0  0  0  0  0  0  0  0  0  0  0  0
    1.6138   -1.5119   -0.1196 H   0  0  0  0  0  0  0  0  0  0  0  0
    1.4357   -0.9659    1.5856 H   0  0  0  0  0  0  0  0  0  0  0  0
    3.9707   -0.6315   -1.2715 H   0  0  0  0  0  0  0  0  0  0  0  0
    3.9714   -2.2394   -0.5046 H   0  0  0  0  0  0  0  0  0  0  0  0
   -0.4703   -0.7375    0.8236 H   0  0  0  0  0  0  0  0  0  0  0  0
    7.6892   -1.7199   -1.5621 H   0  0  0  0  0  0  0  0  0  0  0  0
    6.2477   -1.1594   -2.4319 H   0  0  0  0  0  0  0  0  0  0  0  0
    6.2642   -2.7726   -1.6617 H   0  0  0  0  0  0  0  0  0  0  0  0
   -2.0676    2.1466   -1.4622 H   0  0  0  0  0  0  0  0  0  0  0  0
   -4.7311    1.5761   -1.4766 H   0  0  0  0  0  0  0  0  0  0  0  0
  1 12  1  0  0  0  0
  1 16  1  0  0  0  0
  2 10  1  0  0  0  0
  2 13  1  0  0  0  0
  3 13  2  0  0  0  0
  4 15  1  0  0  0  0
  4 18  1  0  0  0  0
  5  9  1  0  0  0  0
  6  9  2  0  0  0  0
  7  8  1  0  0  0  0
  7 11  1  0  0  0  0
  7 13  1  0  0  0  0
  8 14  2  0  0  0  0
  9 18  1  0  0  0  0
 10 11  1  0  0  0  0
 10 12  1  0  0  0  0
 10 20  1  0  0  0  0
 11 21  1  0  0  0  0
 11 22  1  0  0  0  0
 12 23  1  0  0  0  0
 12 24  1  0  0  0  0
 14 15  1  0  0  0  0
 14 25  1  0  0  0  0
 15 17  2  0  0  0  0
 16 26  1  0  0  0  0
 16 27  1  0  0  0  0
 16 28  1  0  0  0  0
 17 19  1  0  0  0  0
 17 29  1  0  0  0  0
 18 19  2  0  0  0  0
 19 30  1  0  0  0  0
M  CHG  2   5  -1   9   1
M  END
> <DATABASE_ID>
DB13724

> <DATABASE_NAME>
drugbank

> <ORIGINAL_SOURCE>
PUBCHEM

> <ORIGINAL_SOURCE_URL>
https://pubchem.ncbi.nlm.nih.gov/rest/pug/compound/inchikey/SRQKTCXJCCHINN-NYYWCZLTSA-N/SDF?record_type=3d

> <SMILES>
CSCC1CN(\N=C\C2=CC=C(O2)[N+]([O-])=O)C(=O)O1

> <INCHI_IDENTIFIER>
InChI=1S/C10H11N3O5S/c1-19-6-8-5-12(10(14)18-8)11-4-7-2-3-9(17-7)13(15)16/h2-4,8H,5-6H2,1H3/b11-4+

> <INCHI_KEY>
SRQKTCXJCCHINN-NYYWCZLTSA-N

> <FORMULA>
C10H11N3O5S

> <MOLECULAR_WEIGHT>
285.27

> <EXACT_MASS>
285.04194164

> <JCHEM_ACCEPTOR_COUNT>
4

> <JCHEM_ATOM_COUNT>
30

> <JCHEM_AVERAGE_POLARIZABILITY>
27.284265404565083

> <JCHEM_BIOAVAILABILITY>
1

> <JCHEM_DONOR_COUNT>
0

> <JCHEM_FORMAL_CHARGE>
0

> <JCHEM_GHOSE_FILTER>
1

> <JCHEM_IUPAC>
5-[(methylsulfanyl)methyl]-3-[(E)-[(5-nitrofuran-2-yl)methylidene]amino]-1,3-oxazolidin-2-one

> <ALOGPS_LOGP>
0.95

> <JCHEM_LOGP>
1.7220606096666669

> <ALOGPS_LOGS>
-3.42

> <JCHEM_MDDR_LIKE_RULE>
0

> <JCHEM_NUMBER_OF_RINGS>
2

> <JCHEM_PHYSIOLOGICAL_CHARGE>
0

> <JCHEM_PKA_STRONGEST_BASIC>
-2.105191168246053

> <JCHEM_POLAR_SURFACE_AREA>
98.18

> <JCHEM_REFRACTIVITY>
66.8771

> <JCHEM_ROTATABLE_BOND_COUNT>
5

> <JCHEM_RULE_OF_FIVE>
1

> <ALOGPS_SOLUBILITY>
1.09e-01 g/l

> <JCHEM_TRADITIONAL_IUPAC>
omnes

> <JCHEM_VEBER_RULE>
0

$$$$

  Mrv1718006141815302D          

 78 81  0  0  0  0            999 V2000
    2.1605    4.1662    0.0000 C   0  0  0  0  0  0  0  0  0  0  0  0
    2.6327    3.2331    0.0000 N   0  0  0  0  0  0  0  0  0  0  0  0
    2.2202    2.5186    0.0000 C   0  0  2  0  0  0  0  0  0  0  0  0
    2.6326    1.8041    0.0000 C   0  0  0  0  0  0  0  0  0  0  0  0
    2.2201    1.0897    0.0000 N   0  0  0  0  0  0  0  0  0  0  0  0
    2.6326    0.3752    0.0000 C   0  0  2  0  0  0  0  0  0  0  0  0
    2.2201   -0.3392    0.0000 C   0  0  0  0  0  0  0  0  0  0  0  0
    2.6326   -1.0537    0.0000 N   0  0  0  0  0  0  0  0  0  0  0  0
    1.0174    2.5186    0.0000 C   0  0  0  0  0  0  0  0  0  0  0  0
   -0.4291    3.9456    0.0000 N   0  0  0  0  0  0  0  0  0  0  0  0
   -2.8488    4.2330    0.0000 C   0  0  2  0  0  0  0  0  0  0  0  0
   -3.3507    3.2701    0.0000 O   0  0  0  0  0  0  0  0  0  0  0  0
   -2.9382    2.5556    0.0000 C   0  0  0  0  0  0  0  0  0  0  0  0
   -3.3507    1.8412    0.0000 C   0  0  1  0  0  0  0  0  0  0  0  0
   -2.9382    1.1267    0.0000 N   0  0  0  0  0  0  0  0  0  0  0  0
   -3.3507    0.4122    0.0000 C   0  0  0  0  0  0  0  0  0  0  0  0
   -2.9382   -0.3022    0.0000 C   0  0  1  0  0  0  0  0  0  0  0  0
   -3.3507   -1.0166    0.0000 N   0  0  0  0  0  0  0  0  0  0  0  0
   -2.9382   -1.7311    0.0000 C   0  0  0  0  0  0  0  0  0  0  0  0
   -3.3507   -2.4456    0.0000 C   0  0  1  0  0  0  0  0  0  0  0  0
   -1.6119    4.6016    0.0000 C   0  0  0  0  0  0  0  0  0  0  0  0
    0.7139    4.5022    0.0000 C   0  0  0  0  0  0  0  0  0  0  0  0
    2.7118    4.7507    0.0000 O   0  0  0  0  0  0  0  0  0  0  0  0
   -1.6119    5.4962    0.0000 O   0  0  0  0  0  0  0  0  0  0  0  0
    0.7163    5.3849    0.0000 C   0  0  0  0  0  0  0  0  0  0  0  0
    1.2812    5.8161    0.0000 C   0  0  0  0  0  0  0  0  0  0  0  0
   -0.1442    5.7170    0.0000 C   0  0  0  0  0  0  0  0  0  0  0  0
    3.4577    1.8041    0.0000 O   0  0  0  0  0  0  0  0  0  0  0  0
    4.0838    0.3752    0.0000 C   0  0  0  0  0  0  0  0  0  0  0  0
    1.3951   -0.3391    0.0000 O   0  0  0  0  0  0  0  0  0  0  0  0
   -2.1132    2.5556    0.0000 O   0  0  0  0  0  0  0  0  0  0  0  0
   -4.1757    1.8412    0.0000 C   0  0  0  0  0  0  0  0  0  0  0  0
   -4.5882    2.5556    0.0000 C   0  0  0  0  0  0  0  0  0  0  0  0
   -4.5882    1.1267    0.0000 C   0  0  0  0  0  0  0  0  0  0  0  0
   -2.1132    1.1267    0.0000 C   0  0  0  0  0  0  0  0  0  0  0  0
   -4.1757    0.4122    0.0000 O   0  0  0  0  0  0  0  0  0  0  0  0
   -2.0536   -0.0537    0.0000 C   0  0  0  0  0  0  0  0  0  0  0  0
   -1.3926   -0.6786    0.0000 C   0  0  0  0  0  0  0  0  0  0  0  0
   -0.4483   -0.6787    0.0000 C   0  0  0  0  0  0  0  0  0  0  0  0
   -1.3975   -1.4826    0.0000 C   0  0  0  0  0  0  0  0  0  0  0  0
    0.6049    1.8041    0.0000 C   0  0  0  0  0  0  0  0  0  0  0  0
    1.0174    1.0897    0.0000 C   0  0  0  0  0  0  0  0  0  0  0  0
   -0.2200    1.8041    0.0000 C   0  0  0  0  0  0  0  0  0  0  0  0
    0.6049    0.3752    0.0000 C   0  0  0  0  0  0  0  0  0  0  0  0
   -0.6325    1.0897    0.0000 C   0  0  0  0  0  0  0  0  0  0  0  0
   -0.2200    0.3752    0.0000 C   0  0  0  0  0  0  0  0  0  0  0  0
   -2.1132   -1.7311    0.0000 O   0  0  0  0  0  0  0  0  0  0  0  0
   -2.9382   -3.1600    0.0000 N   0  0  0  0  0  0  0  0  0  0  0  0
    4.4963    1.0897    0.0000 C   0  0  0  0  0  0  0  0  0  0  0  0
    4.0839    1.8041    0.0000 C   0  0  0  0  0  0  0  0  0  0  0  0
    5.3214    1.0897    0.0000 C   0  0  0  0  0  0  0  0  0  0  0  0
    4.4964    2.5186    0.0000 C   0  0  0  0  0  0  0  0  0  0  0  0
    5.7339    1.8041    0.0000 C   0  0  0  0  0  0  0  0  0  0  0  0
    5.3214    2.5186    0.0000 C   0  0  0  0  0  0  0  0  0  0  0  0
    3.4172   -0.7987    0.0000 C   0  0  0  0  0  0  0  0  0  0  0  0
    2.6326   -1.8787    0.0000 C   0  0  1  0  0  0  0  0  0  0  0  0
    3.9022   -1.4662    0.0000 C   0  0  0  0  0  0  0  0  0  0  0  0
    3.4174   -2.1337    0.0000 C   0  0  0  0  0  0  0  0  0  0  0  0
    1.9652   -2.3636    0.0000 C   0  0  0  0  0  0  0  0  0  0  0  0
    1.2115   -2.0280    0.0000 O   0  0  0  0  0  0  0  0  0  0  0  0
    1.9520   -3.2139    0.0000 N   0  0  0  0  0  0  0  0  0  0  0  0
   -4.1757   -2.4456    0.0000 C   0  0  0  0  0  0  0  0  0  0  0  0
   -4.5882   -1.7311    0.0000 C   0  0  0  0  0  0  0  0  0  0  0  0
   -4.5882   -3.1600    0.0000 C   0  0  0  0  0  0  0  0  0  0  0  0
   -1.2640   -3.1712    0.0000 C   0  0  0  0  0  0  0  0  0  0  0  0
    0.3760   -3.7576    0.0000 C   0  0  1  0  0  0  0  0  0  0  0  0
   -3.5700   -4.0359    0.0000 C   0  0  0  0  0  0  0  0  0  0  0  0
   -0.9261   -2.1474    0.0000 O   0  0  0  0  0  0  0  0  0  0  0  0
    0.3713   -4.5826    0.0000 C   0  0  1  0  0  0  0  0  0  0  0  0
   -0.3453   -4.9911    0.0000 C   0  0  0  0  0  0  0  0  0  0  0  0
    1.0835   -4.9991    0.0000 C   0  0  0  0  0  0  0  0  0  0  0  0
   -1.0575   -4.5745    0.0000 C   0  0  0  0  0  0  0  0  0  0  0  0
   -0.3500   -5.8161    0.0000 C   0  0  0  0  0  0  0  0  0  0  0  0
   -4.0001    4.5612    0.0000 C   0  0  2  0  0  0  0  0  0  0  0  0
   -4.0120    5.4608    0.0000 C   0  0  0  0  0  0  0  0  0  0  0  0
   -4.8113    4.2059    0.0000 C   0  0  0  0  0  0  0  0  0  0  0  0
   -5.7339    4.6209    0.0000 C   0  0  0  0  0  0  0  0  0  0  0  0
    1.5985    1.9278    0.0000 C   0  0  0  0  0  0  0  0  0  0  0  0
  2  1  1  0  0  0  0
  3  2  1  0  0  0  0
  4  3  1  0  0  0  0
  5  4  1  0  0  0  0
  6  5  1  0  0  0  0
  7  6  1  0  0  0  0
  8  7  1  0  0  0  0
  3  9  1  6  0  0  0
 11 12  1  1  0  0  0
 13 12  1  0  0  0  0
 14 13  1  0  0  0  0
 15 14  1  0  0  0  0
 16 15  1  0  0  0  0
 17 16  1  0  0  0  0
 18 17  1  0  0  0  0
 19 18  1  0  0  0  0
 20 19  1  0  0  0  0
 11 21  1  0  0  0  0
 10 21  1  0  0  0  0
 10 22  1  0  0  0  0
  1 22  1  0  0  0  0
  1 23  2  0  0  0  0
 21 24  2  0  0  0  0
 22 25  1  0  0  0  0
 25 26  1  0  0  0  0
 25 27  1  0  0  0  0
  4 28  2  0  0  0  0
  6 29  1  1  0  0  0
  7 30  2  0  0  0  0
 13 31  2  0  0  0  0
 14 32  1  1  0  0  0
 32 33  1  0  0  0  0
 32 34  1  0  0  0  0
 15 35  1  0  0  0  0
 16 36  2  0  0  0  0
 17 37  1  6  0  0  0
 37 38  1  0  0  0  0
 38 39  1  0  0  0  0
 38 40  1  0  0  0  0
  9 41  1  0  0  0  0
 42 41  1  0  0  0  0
 43 41  2  0  0  0  0
 44 42  2  0  0  0  0
 45 43  1  0  0  0  0
 46 44  1  0  0  0  0
 46 45  2  0  0  0  0
 19 47  2  0  0  0  0
 20 48  1  0  0  0  0
 50 49  1  0  0  0  0
 51 49  2  0  0  0  0
 52 50  2  0  0  0  0
 53 51  1  0  0  0  0
 54 52  1  0  0  0  0
 54 53  2  0  0  0  0
 29 49  1  0  0  0  0
 55  8  1  0  0  0  0
 56  8  1  0  0  0  0
 57 55  1  0  0  0  0
 58 56  1  0  0  0  0
 58 57  1  0  0  0  0
 56 59  1  1  0  0  0
 59 60  2  0  0  0  0
 59 61  1  0  0  0  0
 20 62  1  1  0  0  0
 62 63  1  0  0  0  0
 62 64  1  0  0  0  0
 48 65  1  0  0  0  0
 65 66  1  0  0  0  0
 66 61  1  6  0  0  0
 48 67  1  0  0  0  0
 65 68  2  0  0  0  0
 66 69  1  0  0  0  0
 69 70  1  0  0  0  0
 69 71  1  6  0  0  0
 70 72  1  0  0  0  0
 70 73  1  0  0  0  0
 11 74  1  0  0  0  0
 74 75  1  1  0  0  0
 74 76  1  0  0  0  0
 76 77  1  0  0  0  0
  5 78  1  0  0  0  0
M  END
> <DATABASE_ID>
DB14058

> <DATABASE_NAME>
drugbank

> <SMILES>
CC[C@@H](C)[C@@H]1OC(=O)[C@H](C(C)C)N(C)C(=O)[C@H](CC(C)C)NC(=O)[C@H](C(C)C)N(C)C(=O)[C@H](NC(=O)[C@@H]2CCCN2C(=O)[C@H](CC2=CC=CC=C2)N(C)C(=O)[C@H](CC2=CC=CC=C2)NC(=O)C(NC1=O)C(C)C)[C@H](C)C(C)C

> <INCHI_IDENTIFIER>
InChI=1S/C60H92N8O10/c1-17-39(12)51-55(72)63-47(36(6)7)53(70)61-44(32-41-25-20-18-21-26-41)56(73)65(14)46(33-42-27-22-19-23-28-42)58(75)68-30-24-29-45(68)52(69)64-48(40(13)35(4)5)59(76)66(15)49(37(8)9)54(71)62-43(31-34(2)3)57(74)67(16)50(38(10)11)60(77)78-51/h18-23,25-28,34-40,43-51H,17,24,29-33H2,1-16H3,(H,61,70)(H,62,71)(H,63,72)(H,64,69)/t39-,40-,43+,44+,45+,46+,47?,48-,49+,50+,51+/m1/s1

> <INCHI_KEY>
YHSKJPXGXIYLHB-OTNPUQRPSA-N

> <FORMULA>
C60H92N8O10

> <MOLECULAR_WEIGHT>
1085.442

> <EXACT_MASS>
1084.693641194

> <JCHEM_ACCEPTOR_COUNT>
9

> <JCHEM_ATOM_COUNT>
170

> <JCHEM_AVERAGE_POLARIZABILITY>
117.99835287237158

> <JCHEM_BIOAVAILABILITY>
0

> <JCHEM_DONOR_COUNT>
4

> <JCHEM_FORMAL_CHARGE>
0

> <JCHEM_GHOSE_FILTER>
0

> <JCHEM_IUPAC>
(3R,6S,9S,12S,15S,21S,24S,29aS)-21,24-dibenzyl-15-[(2R)-butan-2-yl]-5,11,23-trimethyl-3-[(2R)-3-methylbutan-2-yl]-9-(2-methylpropyl)-6,12,18-tris(propan-2-yl)-octacosahydropyrrolo[1,2-m]1-oxa-4,7,10,13,16,19,22,25-octaazacycloheptacosane-1,4,7,10,13,16,19,22,25-nonone

> <ALOGPS_LOGP>
5.14

> <JCHEM_LOGP>
7.024578827333336

> <ALOGPS_LOGS>
-5.44

> <JCHEM_MDDR_LIKE_RULE>
1

> <JCHEM_NUMBER_OF_RINGS>
4

> <JCHEM_PHYSIOLOGICAL_CHARGE>
0

> <JCHEM_PKA>
12.17925414945101

> <JCHEM_PKA_STRONGEST_ACIDIC>
11.763028859800674

> <JCHEM_PKA_STRONGEST_BASIC>
-2.3390497282172937

> <JCHEM_POLAR_SURFACE_AREA>
223.93999999999997

> <JCHEM_REFRACTIVITY>
297.7461999999999

> <JCHEM_ROTATABLE_BOND_COUNT>
13

> <JCHEM_RULE_OF_FIVE>
0

> <ALOGPS_SOLUBILITY>
3.95e-03 g/l

> <JCHEM_TRADITIONAL_IUPAC>
aureobasidin A

> <JCHEM_VEBER_RULE>
0

> <DRUGBANK_ID>
DB14058

> <DRUG_GROUPS>
experimental

> <GENERIC_NAME>
Basifungin

> <SYNONYMS>
Aureobasidin A; Basifungin

$$$$
91885568
  -OEChem-05201911033D

 64 68  0     0  0  0  0  0  0999 V2000
  -11.0731    0.3613    0.4516 F   0  0  0  0  0  0  0  0  0  0  0  0
    5.4955   -1.7001   -2.0838 O   0  0  0  0  0  0  0  0  0  0  0  0
    3.2780   -0.0170   -2.4853 O   0  0  0  0  0  0  0  0  0  0  0  0
   -2.8480   -0.5270   -0.1006 N   0  0  0  0  0  0  0  0  0  0  0  0
   -5.7032   -0.2185    0.0907 N   0  0  0  0  0  0  0  0  0  0  0  0
    6.6734   -1.2094    0.5966 N   0  0  0  0  0  0  0  0  0  0  0  0
   -7.8137   -1.2014    0.1742 N   0  0  0  0  0  0  0  0  0  0  0  0
   -7.5485    1.1917    0.2729 N   0  0  0  0  0  0  0  0  0  0  0  0
    2.6842   -1.1279   -0.4725 N   0  0  0  0  0  0  0  0  0  0  0  0
   -3.6726   -1.5382    0.5608 C   0  0  0  0  0  0  0  0  0  0  0  0
   -3.5186    0.6458   -0.6615 C   0  0  0  0  0  0  0  0  0  0  0  0
   -4.8176    0.9458    0.0915 C   0  0  0  0  0  0  0  0  0  0  0  0
   -5.0935   -1.5444   -0.0096 C   0  0  0  0  0  0  0  0  0  0  0  0
   -1.4668   -0.6762   -0.1931 C   0  0  0  0  0  0  0  0  0  0  0  0
   -7.0844   -0.0693    0.1836 C   0  0  0  0  0  0  0  0  0  0  0  0
   -0.7727   -1.3734    0.7957 C   0  0  0  0  0  0  0  0  0  0  0  0
   -0.7773   -0.1291   -1.2752 C   0  0  0  0  0  0  0  0  0  0  0  0
    0.6108   -1.5237    0.7024 C   0  0  0  0  0  0  0  0  0  0  0  0
    0.6063   -0.2794   -1.3686 C   0  0  0  0  0  0  0  0  0  0  0  0
    1.3004   -0.9767   -0.3796 C   0  0  0  0  0  0  0  0  0  0  0  0
    5.6580   -0.5259   -0.0198 C   0  0  0  0  0  0  0  0  0  0  0  0
    5.4415    0.6362    0.6873 C   0  0  0  0  0  0  0  0  0  0  0  0
    7.1078   -0.5017    1.6868 C   0  0  0  0  0  0  0  0  0  0  0  0
    6.3586    0.6514    1.7670 C   0  0  0  0  0  0  0  0  0  0  0  0
    4.9570   -1.0097   -1.2307 C   0  0  0  0  0  0  0  0  0  0  0  0
    4.4466    1.6102    0.3367 C   0  0  0  0  0  0  0  0  0  0  0  0
    3.5234   -0.6492   -1.4717 C   0  0  0  0  0  0  0  0  0  0  0  0
    7.2048   -2.4848    0.1636 C   0  0  0  0  0  0  0  0  0  0  0  0
   -9.1475   -1.0200    0.2652 C   0  0  0  0  0  0  0  0  0  0  0  0
   -8.8904    1.2997    0.3608 C   0  0  0  0  0  0  0  0  0  0  0  0
    8.1987   -0.9846    2.5585 C   0  0  0  0  0  0  0  0  0  0  0  0
   -9.7481    0.2187    0.3619 C   0  0  0  0  0  0  0  0  0  0  0  0
    3.4306    1.9242    1.2393 C   0  0  0  0  0  0  0  0  0  0  0  0
    4.4957    2.2421   -0.9057 C   0  0  0  0  0  0  0  0  0  0  0  0
    2.4634    2.8702    0.8995 C   0  0  0  0  0  0  0  0  0  0  0  0
    3.5286    3.1881   -1.2457 C   0  0  0  0  0  0  0  0  0  0  0  0
    2.5125    3.5021   -0.3431 C   0  0  0  0  0  0  0  0  0  0  0  0
   -3.2521   -2.5416    0.4197 H   0  0  0  0  0  0  0  0  0  0  0  0
   -3.7351    0.4670   -1.7221 H   0  0  0  0  0  0  0  0  0  0  0  0
   -3.7041   -1.3324    1.6380 H   0  0  0  0  0  0  0  0  0  0  0  0
   -2.8795    1.5347   -0.5913 H   0  0  0  0  0  0  0  0  0  0  0  0
   -4.5989    1.2279    1.1288 H   0  0  0  0  0  0  0  0  0  0  0  0
   -5.2844    1.8093   -0.3970 H   0  0  0  0  0  0  0  0  0  0  0  0
   -5.0788   -1.8524   -1.0623 H   0  0  0  0  0  0  0  0  0  0  0  0
   -5.6646   -2.2955    0.5491 H   0  0  0  0  0  0  0  0  0  0  0  0
   -1.2774   -1.7983    1.6590 H   0  0  0  0  0  0  0  0  0  0  0  0
   -1.2905    0.4066   -2.0692 H   0  0  0  0  0  0  0  0  0  0  0  0
    1.1399   -2.0662    1.4819 H   0  0  0  0  0  0  0  0  0  0  0  0
    1.0769    0.1682   -2.2337 H   0  0  0  0  0  0  0  0  0  0  0  0
    6.4645    1.4182    2.5229 H   0  0  0  0  0  0  0  0  0  0  0  0
    3.1168   -1.6516    0.2855 H   0  0  0  0  0  0  0  0  0  0  0  0
    7.8239   -2.3135   -0.7206 H   0  0  0  0  0  0  0  0  0  0  0  0
    7.8038   -2.9443    0.9514 H   0  0  0  0  0  0  0  0  0  0  0  0
    6.3720   -3.1547   -0.0665 H   0  0  0  0  0  0  0  0  0  0  0  0
   -9.7405   -1.9281    0.2584 H   0  0  0  0  0  0  0  0  0  0  0  0
   -9.2705    2.3131    0.4331 H   0  0  0  0  0  0  0  0  0  0  0  0
    7.9073   -1.9024    3.0794 H   0  0  0  0  0  0  0  0  0  0  0  0
    9.1101   -1.1766    1.9832 H   0  0  0  0  0  0  0  0  0  0  0  0
    8.4453   -0.2385    3.3216 H   0  0  0  0  0  0  0  0  0  0  0  0
    3.3732    1.4387    2.2107 H   0  0  0  0  0  0  0  0  0  0  0  0
    5.2864    2.0232   -1.6197 H   0  0  0  0  0  0  0  0  0  0  0  0
    1.6709    3.1130    1.6012 H   0  0  0  0  0  0  0  0  0  0  0  0
    3.5678    3.6816   -2.2123 H   0  0  0  0  0  0  0  0  0  0  0  0
    1.7591    4.2381   -0.6082 H   0  0  0  0  0  0  0  0  0  0  0  0
  1 32  1  0  0  0  0
  2 25  2  0  0  0  0
  3 27  2  0  0  0  0
  4 10  1  0  0  0  0
  4 11  1  0  0  0  0
  4 14  1  0  0  0  0
  5 12  1  0  0  0  0
  5 13  1  0  0  0  0
  5 15  1  0  0  0  0
  6 21  1  0  0  0  0
  6 23  1  0  0  0  0
  6 28  1  0  0  0  0
  7 15  2  0  0  0  0
  7 29  1  0  0  0  0
  8 15  1  0  0  0  0
  8 30  2  0  0  0  0
  9 20  1  0  0  0  0
  9 27  1  0  0  0  0
  9 51  1  0  0  0  0
 10 13  1  0  0  0  0
 10 38  1  0  0  0  0
 10 40  1  0  0  0  0
 11 12  1  0  0  0  0
 11 39  1  0  0  0  0
 11 41  1  0  0  0  0
 12 42  1  0  0  0  0
 12 43  1  0  0  0  0
 13 44  1  0  0  0  0
 13 45  1  0  0  0  0
 14 16  2  0  0  0  0
 14 17  1  0  0  0  0
 16 18  1  0  0  0  0
 16 46  1  0  0  0  0
 17 19  2  0  0  0  0
 17 47  1  0  0  0  0
 18 20  2  0  0  0  0
 18 48  1  0  0  0  0
 19 20  1  0  0  0  0
 19 49  1  0  0  0  0
 21 22  2  0  0  0  0
 21 25  1  0  0  0  0
 22 24  1  0  0  0  0
 22 26  1  0  0  0  0
 23 24  2  0  0  0  0
 23 31  1  0  0  0  0
 24 50  1  0  0  0  0
 25 27  1  0  0  0  0
 26 33  2  0  0  0  0
 26 34  1  0  0  0  0
 28 52  1  0  0  0  0
 28 53  1  0  0  0  0
 28 54  1  0  0  0  0
 29 32  2  0  0  0  0
 29 55  1  0  0  0  0
 30 32  1  0  0  0  0
 30 56  1  0  0  0  0
 31 57  1  0  0  0  0
 31 58  1  0  0  0  0
 31 59  1  0  0  0  0
 33 35  1  0  0  0  0
 33 60  1  0  0  0  0
 34 36  2  0  0  0  0
 34 61  1  0  0  0  0
 35 37  2  0  0  0  0
 35 62  1  0  0  0  0
 36 37  1  0  0  0  0
 36 63  1  0  0  0  0
 37 64  1  0  0  0  0
M  END
> <DATABASE_ID>
DB15245

> <DATABASE_NAME>
drugbank

> <ORIGINAL_SOURCE>
PUBCHEM

> <ORIGINAL_SOURCE_URL>
https://pubchem.ncbi.nlm.nih.gov/rest/pug/compound/inchikey/SUFPWYYDCOKDLL-UHFFFAOYSA-N/SDF?record_type=3d

> <SMILES>
CN1C(C)=CC(=C1C(=O)C(=O)NC1=CC=C(C=C1)N1CCN(CC1)C1=NC=C(F)C=N1)C1=CC=CC=C1

> <INCHI_IDENTIFIER>
InChI=1S/C28H27FN6O2/c1-19-16-24(20-6-4-3-5-7-20)25(33(19)2)26(36)27(37)32-22-8-10-23(11-9-22)34-12-14-35(15-13-34)28-30-17-21(29)18-31-28/h3-11,16-18H,12-15H2,1-2H3,(H,32,37)

> <INCHI_KEY>
SUFPWYYDCOKDLL-UHFFFAOYSA-N

> <FORMULA>
C28H27FN6O2

> <MOLECULAR_WEIGHT>
498.562

> <EXACT_MASS>
498.217952296

> <JCHEM_ACCEPTOR_COUNT>
6

> <JCHEM_ATOM_COUNT>
64

> <JCHEM_AVERAGE_POLARIZABILITY>
52.98638503315574

> <JCHEM_BIOAVAILABILITY>
1

> <JCHEM_DONOR_COUNT>
1

> <JCHEM_FORMAL_CHARGE>
0

> <JCHEM_GHOSE_FILTER>
0

> <JCHEM_IUPAC>
2-(1,5-dimethyl-3-phenyl-1H-pyrrol-2-yl)-N-{4-[4-(5-fluoropyrimidin-2-yl)piperazin-1-yl]phenyl}-2-oxoacetamide

> <ALOGPS_LOGP>
4.17

> <JCHEM_LOGP>
4.739398609333334

> <ALOGPS_LOGS>
-4.55

> <JCHEM_MDDR_LIKE_RULE>
1

> <JCHEM_NUMBER_OF_RINGS>
5

> <JCHEM_PHYSIOLOGICAL_CHARGE>
0

> <JCHEM_PKA_STRONGEST_ACIDIC>
12.287209412142646

> <JCHEM_PKA_STRONGEST_BASIC>
2.6578712439674224

> <JCHEM_POLAR_SURFACE_AREA>
83.36

> <JCHEM_REFRACTIVITY>
144.15579999999994

> <JCHEM_ROTATABLE_BOND_COUNT>
6

> <JCHEM_RULE_OF_FIVE>
1

> <ALOGPS_SOLUBILITY>
1.42e-02 g/l

> <JCHEM_TRADITIONAL_IUPAC>
(2R)-14-fluoro-2-methyl-6,9,10,19-tetraazapentacyclo[14.2.1.0^{2,6}.0^{8,18}.0^{12,17}]nonadeca-1(18),8,12(17),13,15-pentaen-11-one

> <JCHEM_VEBER_RULE>
0

$$$$
