3365
  -OEChem-10051719093D

 34 36  0     0  0  0  0  0  0999 V2000
    0.1203    0.8123   -2.3583 F   0  0  0  0  0  0  0  0  0  0  0  0
    0.0743    4.5194    0.5816 F   0  0  0  0  0  0  0  0  0  0  0  0
   -0.0390   -1.7461    1.0352 O   0  0  0  0  0  0  0  0  0  0  0  0
    2.5378   -1.2646   -0.2988 N   0  0  0  0  0  0  0  0  0  0  0  0
   -2.5840   -1.2224   -0.3378 N   0  0  0  0  0  0  0  0  0  0  0  0
    3.1935   -0.1262   -0.5079 N   0  0  0  0  0  0  0  0  0  0  0  0
   -3.1060   -2.1001    0.5126 N   0  0  0  0  0  0  0  0  0  0  0  0
    4.2912   -1.5100    0.9456 N   0  0  0  0  0  0  0  0  0  0  0  0
   -4.3879   -0.2176    0.3002 N   0  0  0  0  0  0  0  0  0  0  0  0
   -0.0448   -1.0408   -0.2311 C   0  0  0  0  0  0  0  0  0  0  0  0
    1.2615   -1.5086   -0.9709 C   0  0  0  0  0  0  0  0  0  0  0  0
   -1.3185   -1.5229   -1.0139 C   0  0  0  0  0  0  0  0  0  0  0  0
   -0.0121    0.4352   -0.0179 C   0  0  0  0  0  0  0  0  0  0  0  0
    0.0701    1.2987   -1.1102 C   0  0  0  0  0  0  0  0  0  0  0  0
   -0.0651    0.9512    1.2770 C   0  0  0  0  0  0  0  0  0  0  0  0
    0.0999    2.6786   -0.9077 C   0  0  0  0  0  0  0  0  0  0  0  0
   -0.0353    2.3308    1.4795 C   0  0  0  0  0  0  0  0  0  0  0  0
    3.1775   -2.0854    0.5558 C   0  0  0  0  0  0  0  0  0  0  0  0
   -3.3303   -0.1116   -0.4703 C   0  0  0  0  0  0  0  0  0  0  0  0
    0.0471    3.1946    0.3873 C   0  0  0  0  0  0  0  0  0  0  0  0
    4.2581   -0.3221    0.2729 C   0  0  0  0  0  0  0  0  0  0  0  0
   -4.2084   -1.4422    0.8772 C   0  0  0  0  0  0  0  0  0  0  0  0
    1.3478   -1.0821   -1.9765 H   0  0  0  0  0  0  0  0  0  0  0  0
    1.2189   -2.5985   -1.1062 H   0  0  0  0  0  0  0  0  0  0  0  0
   -1.3788   -1.0742   -2.0118 H   0  0  0  0  0  0  0  0  0  0  0  0
   -1.2964   -2.6128   -1.1423 H   0  0  0  0  0  0  0  0  0  0  0  0
   -0.0621   -2.6997    0.8456 H   0  0  0  0  0  0  0  0  0  0  0  0
   -0.1333    0.3145    2.1538 H   0  0  0  0  0  0  0  0  0  0  0  0
    0.1635    3.3508   -1.7579 H   0  0  0  0  0  0  0  0  0  0  0  0
   -0.0776    2.7336    2.4872 H   0  0  0  0  0  0  0  0  0  0  0  0
    2.8147   -3.0570    0.8603 H   0  0  0  0  0  0  0  0  0  0  0  0
   -3.0869    0.7214   -1.1144 H   0  0  0  0  0  0  0  0  0  0  0  0
    5.0336    0.4247    0.3551 H   0  0  0  0  0  0  0  0  0  0  0  0
   -4.9025   -1.8680    1.5863 H   0  0  0  0  0  0  0  0  0  0  0  0
  1 14  1  0  0  0  0
  2 20  1  0  0  0  0
  3 10  1  0  0  0  0
  3 27  1  0  0  0  0
  4  6  1  0  0  0  0
  4 11  1  0  0  0  0
  4 18  1  0  0  0  0
  5  7  1  0  0  0  0
  5 12  1  0  0  0  0
  5 19  1  0  0  0  0
  6 21  2  0  0  0  0
  7 22  2  0  0  0  0
  8 18  2  0  0  0  0
  8 21  1  0  0  0  0
  9 19  2  0  0  0  0
  9 22  1  0  0  0  0
 10 11  1  0  0  0  0
 10 12  1  0  0  0  0
 10 13  1  0  0  0  0
 11 23  1  0  0  0  0
 11 24  1  0  0  0  0
 12 25  1  0  0  0  0
 12 26  1  0  0  0  0
 13 14  2  0  0  0  0
 13 15  1  0  0  0  0
 14 16  1  0  0  0  0
 15 17  2  0  0  0  0
 15 28  1  0  0  0  0
 16 20  2  0  0  0  0
 16 29  1  0  0  0  0
 17 20  1  0  0  0  0
 17 30  1  0  0  0  0
 18 31  1  0  0  0  0
 19 32  1  0  0  0  0
 21 33  1  0  0  0  0
 22 34  1  0  0  0  0
M  END
> <DATABASE_ID>
DB00196

> <DATABASE_NAME>
drugbank

> <ORIGINAL_SOURCE>
PUBCHEM

> <ORIGINAL_SOURCE_URL>
https://pubchem.ncbi.nlm.nih.gov/rest/pug/compound/inchikey/RFHAOTPXVQNOHP-UHFFFAOYSA-N/SDF?record_type=3d

> <SMILES>
OC(CN1C=NC=N1)(CN1C=NC=N1)C1=C(F)C=C(F)C=C1

> <INCHI_IDENTIFIER>
InChI=1S/C13H12F2N6O/c14-10-1-2-11(12(15)3-10)13(22,4-20-8-16-6-18-20)5-21-9-17-7-19-21/h1-3,6-9,22H,4-5H2

> <INCHI_KEY>
RFHAOTPXVQNOHP-UHFFFAOYSA-N

> <FORMULA>
C13H12F2N6O

> <MOLECULAR_WEIGHT>
306.2708

> <EXACT_MASS>
306.104065446

> <JCHEM_ACCEPTOR_COUNT>
5

> <JCHEM_AVERAGE_POLARIZABILITY>
26.521181986617826

> <JCHEM_BIOAVAILABILITY>
1

> <JCHEM_DONOR_COUNT>
1

> <JCHEM_FORMAL_CHARGE>
0

> <JCHEM_GHOSE_FILTER>
1

> <JCHEM_IUPAC>
2-(2,4-difluorophenyl)-1,3-bis(1H-1,2,4-triazol-1-yl)propan-2-ol

> <ALOGPS_LOGP>
0.58

> <JCHEM_LOGP>
0.5609582823333339

> <ALOGPS_LOGS>
-2.34

> <JCHEM_MDDR_LIKE_RULE>
0

> <JCHEM_NUMBER_OF_RINGS>
3

> <JCHEM_PHYSIOLOGICAL_CHARGE>
0

> <JCHEM_PKA_STRONGEST_ACIDIC>
12.707208218459204

> <JCHEM_PKA_STRONGEST_BASIC>
2.563235647156804

> <JCHEM_POLAR_SURFACE_AREA>
81.65

> <JCHEM_REFRACTIVITY>
97.1995

> <JCHEM_ROTATABLE_BOND_COUNT>
5

> <JCHEM_RULE_OF_FIVE>
1

> <ALOGPS_SOLUBILITY>
1.39e+00 g/l

> <JCHEM_TRADITIONAL_IUPAC>
fluconazole

> <JCHEM_VEBER_RULE>
0

$$$$
5353853
  -OEChem-10051719103D

 39 41  0     0  0  0  0  0  0999 V2000
    2.6805   -2.6040   -1.8562 Cl  0  0  0  0  0  0  0  0  0  0  0  0
   -3.1885    0.9690    2.2854 Cl  0  0  0  0  0  0  0  0  0  0  0  0
    7.0696   -1.2088    0.9261 Cl  0  0  0  0  0  0  0  0  0  0  0  0
   -7.4627   -0.2493   -0.7509 Cl  0  0  0  0  0  0  0  0  0  0  0  0
   -0.9196   -0.6715    0.0493 O   0  0  0  0  0  0  0  0  0  0  0  0
    0.8126    2.0233   -0.8993 N   0  0  0  0  0  0  0  0  0  0  0  0
    0.3920   -0.9761    0.4264 N   0  0  0  0  0  0  0  0  0  0  0  0
    1.4295    4.0639   -0.3556 N   0  0  0  0  0  0  0  0  0  0  0  0
    0.9069    0.6506   -1.4010 C   0  0  0  0  0  0  0  0  0  0  0  0
    1.2921   -0.3459   -0.2951 C   0  0  0  0  0  0  0  0  0  0  0  0
    2.7042   -0.5847   -0.0222 C   0  0  0  0  0  0  0  0  0  0  0  0
    3.4238   -1.5846   -0.6766 C   0  0  0  0  0  0  0  0  0  0  0  0
    3.3344    0.2216    0.9257 C   0  0  0  0  0  0  0  0  0  0  0  0
   -0.3035    2.6037   -0.4003 C   0  0  0  0  0  0  0  0  0  0  0  0
   -3.2171   -1.0884    0.4992 C   0  0  0  0  0  0  0  0  0  0  0  0
   -1.8018   -1.4011    0.8874 C   0  0  0  0  0  0  0  0  0  0  0  0
    1.8289    2.9175   -0.8598 C   0  0  0  0  0  0  0  0  0  0  0  0
    4.7735   -1.7781   -0.3829 C   0  0  0  0  0  0  0  0  0  0  0  0
    4.6841    0.0280    1.2192 C   0  0  0  0  0  0  0  0  0  0  0  0
    0.1012    3.8748   -0.0666 C   0  0  0  0  0  0  0  0  0  0  0  0
    5.4037   -0.9719    0.5650 C   0  0  0  0  0  0  0  0  0  0  0  0
   -3.9141   -0.0351    1.0836 C   0  0  0  0  0  0  0  0  0  0  0  0
   -3.8230   -1.8842   -0.4689 C   0  0  0  0  0  0  0  0  0  0  0  0
   -5.2287    0.2249    0.6967 C   0  0  0  0  0  0  0  0  0  0  0  0
   -5.1376   -1.6241   -0.8556 C   0  0  0  0  0  0  0  0  0  0  0  0
   -5.8406   -0.5696   -0.2728 C   0  0  0  0  0  0  0  0  0  0  0  0
   -0.0425    0.3930   -1.8793 H   0  0  0  0  0  0  0  0  0  0  0  0
    1.6769    0.6477   -2.1813 H   0  0  0  0  0  0  0  0  0  0  0  0
    2.7855    1.0001    1.4493 H   0  0  0  0  0  0  0  0  0  0  0  0
   -1.2571    2.1006   -0.3259 H   0  0  0  0  0  0  0  0  0  0  0  0
   -1.6027   -1.1812    1.9423 H   0  0  0  0  0  0  0  0  0  0  0  0
   -1.6120   -2.4755    0.7600 H   0  0  0  0  0  0  0  0  0  0  0  0
    2.8299    2.6973   -1.2052 H   0  0  0  0  0  0  0  0  0  0  0  0
    5.3366   -2.5573   -0.8924 H   0  0  0  0  0  0  0  0  0  0  0  0
    5.1617    0.6630    1.9610 H   0  0  0  0  0  0  0  0  0  0  0  0
   -0.4969    4.6638    0.3657 H   0  0  0  0  0  0  0  0  0  0  0  0
   -3.2866   -2.7071   -0.9336 H   0  0  0  0  0  0  0  0  0  0  0  0
   -5.7783    1.0473    1.1499 H   0  0  0  0  0  0  0  0  0  0  0  0
   -5.6015   -2.2510   -1.6129 H   0  0  0  0  0  0  0  0  0  0  0  0
  1 12  1  0  0  0  0
  2 22  1  0  0  0  0
  3 21  1  0  0  0  0
  4 26  1  0  0  0  0
  5  7  1  0  0  0  0
  5 16  1  0  0  0  0
  6  9  1  0  0  0  0
  6 14  1  0  0  0  0
  6 17  1  0  0  0  0
  7 10  2  0  0  0  0
  8 17  2  0  0  0  0
  8 20  1  0  0  0  0
  9 10  1  0  0  0  0
  9 27  1  0  0  0  0
  9 28  1  0  0  0  0
 10 11  1  0  0  0  0
 11 12  2  0  0  0  0
 11 13  1  0  0  0  0
 12 18  1  0  0  0  0
 13 19  2  0  0  0  0
 13 29  1  0  0  0  0
 14 20  2  0  0  0  0
 14 30  1  0  0  0  0
 15 16  1  0  0  0  0
 15 22  2  0  0  0  0
 15 23  1  0  0  0  0
 16 31  1  0  0  0  0
 16 32  1  0  0  0  0
 17 33  1  0  0  0  0
 18 21  2  0  0  0  0
 18 34  1  0  0  0  0
 19 21  1  0  0  0  0
 19 35  1  0  0  0  0
 20 36  1  0  0  0  0
 22 24  1  0  0  0  0
 23 25  2  0  0  0  0
 23 37  1  0  0  0  0
 24 26  2  0  0  0  0
 24 38  1  0  0  0  0
 25 26  1  0  0  0  0
 25 39  1  0  0  0  0
M  END
> <DATABASE_ID>
DB00239

> <DATABASE_NAME>
drugbank

> <ORIGINAL_SOURCE>
PUBCHEM

> <ORIGINAL_SOURCE_URL>
https://pubchem.ncbi.nlm.nih.gov/rest/pug/compound/inchikey/QRJJEGAJXVEBNE-HKOYGPOVSA-N/SDF?record_type=3d

> <SMILES>
ClC1=CC(Cl)=C(CO\N=C(/CN2C=CN=C2)C2=CC=C(Cl)C=C2Cl)C=C1

> <INCHI_IDENTIFIER>
InChI=1S/C18H13Cl4N3O/c19-13-2-1-12(16(21)7-13)10-26-24-18(9-25-6-5-23-11-25)15-4-3-14(20)8-17(15)22/h1-8,11H,9-10H2/b24-18+

> <INCHI_KEY>
QRJJEGAJXVEBNE-HKOYGPOVSA-N

> <FORMULA>
C18H13Cl4N3O

> <MOLECULAR_WEIGHT>
429.12

> <EXACT_MASS>
426.9812729

> <JCHEM_ACCEPTOR_COUNT>
3

> <JCHEM_ATOM_COUNT>
39

> <JCHEM_AVERAGE_POLARIZABILITY>
40.79437020696298

> <JCHEM_BIOAVAILABILITY>
1

> <JCHEM_DONOR_COUNT>
0

> <JCHEM_FORMAL_CHARGE>
0

> <JCHEM_GHOSE_FILTER>
0

> <JCHEM_IUPAC>
(Z)-[1-(2,4-dichlorophenyl)-2-(1H-imidazol-1-yl)ethylidene][(2,4-dichlorophenyl)methoxy]amine

> <ALOGPS_LOGP>
5.28

> <JCHEM_LOGP>
5.838766547333333

> <ALOGPS_LOGS>
-5.35

> <JCHEM_MDDR_LIKE_RULE>
1

> <JCHEM_NUMBER_OF_RINGS>
3

> <JCHEM_PHYSIOLOGICAL_CHARGE>
1

> <JCHEM_PKA_STRONGEST_BASIC>
6.738241434816746

> <JCHEM_POLAR_SURFACE_AREA>
39.41

> <JCHEM_REFRACTIVITY>
105.94699999999999

> <JCHEM_ROTATABLE_BOND_COUNT>
6

> <JCHEM_RULE_OF_FIVE>
0

> <ALOGPS_SOLUBILITY>
1.91e-03 g/l

> <JCHEM_TRADITIONAL_IUPAC>
salongo

> <JCHEM_VEBER_RULE>
1

$$$$
441383
  -OEChem-10051719113D

 67 71  0     1  0  0  0  0  0999 V2000
    3.8423   -1.6594    2.2730 Cl  0  0  0  0  0  0  0  0  0  0  0  0
    7.4265   -4.9255   -0.0615 Cl  0  0  0  0  0  0  0  0  0  0  0  0
    3.0837    0.1460    0.5581 O   0  0  0  0  0  0  0  0  0  0  0  0
    4.1567    0.6961   -1.4502 O   0  0  0  0  0  0  0  0  0  0  0  0
   -0.1028    0.7486   -1.1273 O   0  0  0  0  0  0  0  0  0  0  0  0
   -8.2561   -0.7522    0.2170 N   0  0  0  0  0  0  0  0  0  0  0  0
   -5.4977   -0.1023   -0.1405 N   0  0  0  0  0  0  0  0  0  0  0  0
    4.4571    2.6374    0.6464 N   0  0  0  0  0  0  0  0  0  0  0  0
    3.6076    2.9556    1.6348 N   0  0  0  0  0  0  0  0  0  0  0  0
    3.7602    4.6309    0.0848 N   0  0  0  0  0  0  0  0  0  0  0  0
   -7.8537    0.2611   -0.7663 C   0  0  0  0  0  0  0  0  0  0  0  0
   -7.3447   -0.7214    1.3673 C   0  0  0  0  0  0  0  0  0  0  0  0
   -6.4312    0.0038   -1.2689 C   0  0  0  0  0  0  0  0  0  0  0  0
   -5.9046   -1.0103    0.9363 C   0  0  0  0  0  0  0  0  0  0  0  0
    4.3670    0.2721   -0.0881 C   0  0  1  0  0  0  0  0  0  0  0  0
   -9.6353   -0.5283    0.6489 C   0  0  0  0  0  0  0  0  0  0  0  0
    2.1315    0.1513   -0.5076 C   0  0  2  0  0  0  0  0  0  0  0  0
    2.7771    1.0552   -1.5254 C   0  0  0  0  0  0  0  0  0  0  0  0
    5.1550    1.3581    0.6436 C   0  0  0  0  0  0  0  0  0  0  0  0
   -4.1377    0.1133   -0.3898 C   0  0  0  0  0  0  0  0  0  0  0  0
    5.1240   -1.0472   -0.0529 C   0  0  0  0  0  0  0  0  0  0  0  0
    0.7857    0.6389   -0.0163 C   0  0  0  0  0  0  0  0  0  0  0  0
  -10.0407   -1.5715    1.6865 C   0  0  0  0  0  0  0  0  0  0  0  0
  -10.5605   -0.5726   -0.5630 C   0  0  0  0  0  0  0  0  0  0  0  0
   -3.5999   -0.1963   -1.6389 C   0  0  0  0  0  0  0  0  0  0  0  0
   -3.3196    0.6364    0.6117 C   0  0  0  0  0  0  0  0  0  0  0  0
   -1.4258    0.5404   -0.8854 C   0  0  0  0  0  0  0  0  0  0  0  0
    4.9407   -1.9691    0.9778 C   0  0  0  0  0  0  0  0  0  0  0  0
    6.0187   -1.3250   -1.0863 C   0  0  0  0  0  0  0  0  0  0  0  0
   -2.2440    0.0172   -1.8867 C   0  0  0  0  0  0  0  0  0  0  0  0
   -1.9636    0.8498    0.3639 C   0  0  0  0  0  0  0  0  0  0  0  0
    5.6521   -3.1689    0.9750 C   0  0  0  0  0  0  0  0  0  0  0  0
    6.7302   -2.5247   -1.0889 C   0  0  0  0  0  0  0  0  0  0  0  0
    4.5421    3.6382   -0.2708 C   0  0  0  0  0  0  0  0  0  0  0  0
    6.5469   -3.4466   -0.0583 C   0  0  0  0  0  0  0  0  0  0  0  0
    3.2129    4.1705    1.2481 C   0  0  0  0  0  0  0  0  0  0  0  0
   -8.4827    0.2424   -1.6611 H   0  0  0  0  0  0  0  0  0  0  0  0
   -7.9160    1.2697   -0.3359 H   0  0  0  0  0  0  0  0  0  0  0  0
   -7.3893    0.2509    1.8763 H   0  0  0  0  0  0  0  0  0  0  0  0
   -7.5855   -1.4940    2.1036 H   0  0  0  0  0  0  0  0  0  0  0  0
   -6.4137   -0.9228   -1.8574 H   0  0  0  0  0  0  0  0  0  0  0  0
   -6.1537    0.8351   -1.9297 H   0  0  0  0  0  0  0  0  0  0  0  0
   -5.2558   -0.9070    1.8138 H   0  0  0  0  0  0  0  0  0  0  0  0
   -5.8141   -2.0470    0.5871 H   0  0  0  0  0  0  0  0  0  0  0  0
   -9.7427    0.4611    1.1148 H   0  0  0  0  0  0  0  0  0  0  0  0
    2.0528   -0.8682   -0.9062 H   0  0  0  0  0  0  0  0  0  0  0  0
    2.6475    2.1150   -1.2994 H   0  0  0  0  0  0  0  0  0  0  0  0
    2.4061    0.8781   -2.5392 H   0  0  0  0  0  0  0  0  0  0  0  0
    6.1262    1.5387    0.1664 H   0  0  0  0  0  0  0  0  0  0  0  0
    5.3357    1.0996    1.6939 H   0  0  0  0  0  0  0  0  0  0  0  0
    0.4305   -0.0797    0.7346 H   0  0  0  0  0  0  0  0  0  0  0  0
    0.8839    1.6162    0.4720 H   0  0  0  0  0  0  0  0  0  0  0  0
  -11.1245   -1.5465    1.8506 H   0  0  0  0  0  0  0  0  0  0  0  0
   -9.5878   -1.3878    2.6660 H   0  0  0  0  0  0  0  0  0  0  0  0
   -9.7877   -2.5879    1.3636 H   0  0  0  0  0  0  0  0  0  0  0  0
  -10.3674   -1.4477   -1.1944 H   0  0  0  0  0  0  0  0  0  0  0  0
  -10.4937    0.3306   -1.1779 H   0  0  0  0  0  0  0  0  0  0  0  0
  -11.6073   -0.6342   -0.2422 H   0  0  0  0  0  0  0  0  0  0  0  0
   -4.1995   -0.6213   -2.4386 H   0  0  0  0  0  0  0  0  0  0  0  0
   -3.7250    0.9004    1.5851 H   0  0  0  0  0  0  0  0  0  0  0  0
    6.1918   -0.6204   -1.8950 H   0  0  0  0  0  0  0  0  0  0  0  0
   -1.8291   -0.2293   -2.8603 H   0  0  0  0  0  0  0  0  0  0  0  0
   -1.3688    1.2877    1.1600 H   0  0  0  0  0  0  0  0  0  0  0  0
    5.5106   -3.8890    1.7782 H   0  0  0  0  0  0  0  0  0  0  0  0
    7.4265   -2.7266   -1.8988 H   0  0  0  0  0  0  0  0  0  0  0  0
    5.1690    3.5947   -1.1501 H   0  0  0  0  0  0  0  0  0  0  0  0
    2.5033    4.7376    1.8317 H   0  0  0  0  0  0  0  0  0  0  0  0
  1 28  1  0  0  0  0
  2 35  1  0  0  0  0
  3 15  1  0  0  0  0
  3 17  1  0  0  0  0
  4 15  1  0  0  0  0
  4 18  1  0  0  0  0
  5 22  1  0  0  0  0
  5 27  1  0  0  0  0
  6 11  1  0  0  0  0
  6 12  1  0  0  0  0
  6 16  1  0  0  0  0
  7 13  1  0  0  0  0
  7 14  1  0  0  0  0
  7 20  1  0  0  0  0
  8  9  1  0  0  0  0
  8 19  1  0  0  0  0
  8 34  1  0  0  0  0
  9 36  2  0  0  0  0
 10 34  2  0  0  0  0
 10 36  1  0  0  0  0
 11 13  1  0  0  0  0
 11 37  1  0  0  0  0
 11 38  1  0  0  0  0
 12 14  1  0  0  0  0
 12 39  1  0  0  0  0
 12 40  1  0  0  0  0
 13 41  1  0  0  0  0
 13 42  1  0  0  0  0
 14 43  1  0  0  0  0
 14 44  1  0  0  0  0
 15 19  1  0  0  0  0
 15 21  1  0  0  0  0
 16 23  1  0  0  0  0
 16 24  1  0  0  0  0
 16 45  1  0  0  0  0
 17 18  1  0  0  0  0
 17 22  1  0  0  0  0
 17 46  1  0  0  0  0
 18 47  1  0  0  0  0
 18 48  1  0  0  0  0
 19 49  1  0  0  0  0
 19 50  1  0  0  0  0
 20 25  2  0  0  0  0
 20 26  1  0  0  0  0
 21 28  2  0  0  0  0
 21 29  1  0  0  0  0
 22 51  1  0  0  0  0
 22 52  1  0  0  0  0
 23 53  1  0  0  0  0
 23 54  1  0  0  0  0
 23 55  1  0  0  0  0
 24 56  1  0  0  0  0
 24 57  1  0  0  0  0
 24 58  1  0  0  0  0
 25 30  1  0  0  0  0
 25 59  1  0  0  0  0
 26 31  2  0  0  0  0
 26 60  1  0  0  0  0
 27 30  2  0  0  0  0
 27 31  1  0  0  0  0
 28 32  1  0  0  0  0
 29 33  2  0  0  0  0
 29 61  1  0  0  0  0
 30 62  1  0  0  0  0
 31 63  1  0  0  0  0
 32 35  2  0  0  0  0
 32 64  1  0  0  0  0
 33 35  1  0  0  0  0
 33 65  1  0  0  0  0
 34 66  1  0  0  0  0
 36 67  1  0  0  0  0
M  END
> <DATABASE_ID>
DB00251

> <DATABASE_NAME>
drugbank

> <ORIGINAL_SOURCE>
PUBCHEM

> <ORIGINAL_SOURCE_URL>
https://pubchem.ncbi.nlm.nih.gov/rest/pug/compound/inchikey/BLSQLHNBWJLIBQ-OZXSUGGESA-N/SDF?record_type=3d

> <SMILES>
CC(C)N1CCN(CC1)C1=CC=C(OC[C@H]2CO[C@@](CN3C=NC=N3)(O2)C2=C(Cl)C=C(Cl)C=C2)C=C1

> <INCHI_IDENTIFIER>
InChI=1S/C26H31Cl2N5O3/c1-19(2)31-9-11-32(12-10-31)21-4-6-22(7-5-21)34-14-23-15-35-26(36-23,16-33-18-29-17-30-33)24-8-3-20(27)13-25(24)28/h3-8,13,17-19,23H,9-12,14-16H2,1-2H3/t23-,26-/m0/s1

> <INCHI_KEY>
BLSQLHNBWJLIBQ-OZXSUGGESA-N

> <FORMULA>
C26H31Cl2N5O3

> <MOLECULAR_WEIGHT>
532.462

> <EXACT_MASS>
531.180395297

> <JCHEM_ACCEPTOR_COUNT>
7

> <JCHEM_AVERAGE_POLARIZABILITY>
56.15330616306304

> <JCHEM_BIOAVAILABILITY>
0

> <JCHEM_DONOR_COUNT>
0

> <JCHEM_FORMAL_CHARGE>
0

> <JCHEM_GHOSE_FILTER>
0

> <JCHEM_IUPAC>
1-(4-{[(2R,4S)-2-(2,4-dichlorophenyl)-2-(1H-1,2,4-triazol-1-ylmethyl)-1,3-dioxolan-4-yl]methoxy}phenyl)-4-(propan-2-yl)piperazine

> <ALOGPS_LOGP>
4.58

> <JCHEM_LOGP>
5.374220876333333

> <ALOGPS_LOGS>
-4.66

> <JCHEM_MDDR_LIKE_RULE>
1

> <JCHEM_NUMBER_OF_RINGS>
5

> <JCHEM_PHYSIOLOGICAL_CHARGE>
1

> <JCHEM_PKA_STRONGEST_BASIC>
8.409370512807275

> <JCHEM_POLAR_SURFACE_AREA>
64.88

> <JCHEM_REFRACTIVITY>
153.18939999999995

> <JCHEM_ROTATABLE_BOND_COUNT>
8

> <JCHEM_RULE_OF_FIVE>
0

> <ALOGPS_SOLUBILITY>
1.16e-02 g/l

> <JCHEM_TRADITIONAL_IUPAC>
terconazole

> <JCHEM_VEBER_RULE>
0

$$$$
2812
  -OEChem-10051719113D

 42 45  0     0  0  0  0  0  0999 V2000
    0.6462   -0.1889    2.7630 Cl  0  0  0  0  0  0  0  0  0  0  0  0
   -0.4392   -0.0896   -1.7148 N   0  0  0  0  0  0  0  0  0  0  0  0
   -1.1342   -0.9044   -3.5599 N   0  0  0  0  0  0  0  0  0  0  0  0
   -0.1541    0.0030   -0.2084 C   0  0  0  0  0  0  0  0  0  0  0  0
    0.9178   -1.1183    0.2107 C   0  0  0  0  0  0  0  0  0  0  0  0
   -1.4994   -0.0743    0.4304 C   0  0  0  0  0  0  0  0  0  0  0  0
    0.7245    1.3132    0.0975 C   0  0  0  0  0  0  0  0  0  0  0  0
    1.2608   -1.1960    1.5031 C   0  0  0  0  0  0  0  0  0  0  0  0
    1.3571   -1.8700   -0.8149 C   0  0  0  0  0  0  0  0  0  0  0  0
   -2.4572    0.9030    0.1595 C   0  0  0  0  0  0  0  0  0  0  0  0
    0.1559    2.2192    0.9061 C   0  0  0  0  0  0  0  0  0  0  0  0
   -1.8001   -1.1236    1.2987 C   0  0  0  0  0  0  0  0  0  0  0  0
    1.9290    1.3563   -0.4896 C   0  0  0  0  0  0  0  0  0  0  0  0
   -0.1081    0.8548   -2.5651 C   0  0  0  0  0  0  0  0  0  0  0  0
   -1.0359   -1.1218   -2.2673 C   0  0  0  0  0  0  0  0  0  0  0  0
   -0.5572    0.3259   -3.7523 C   0  0  0  0  0  0  0  0  0  0  0  0
    2.1925   -2.1817    1.8284 C   0  0  0  0  0  0  0  0  0  0  0  0
    2.2889   -2.8556   -0.4897 C   0  0  0  0  0  0  0  0  0  0  0  0
   -3.7156    0.8308    0.7570 C   0  0  0  0  0  0  0  0  0  0  0  0
    0.9185    3.3566    1.1717 C   0  0  0  0  0  0  0  0  0  0  0  0
   -3.0584   -1.1959    1.8962 C   0  0  0  0  0  0  0  0  0  0  0  0
    2.6916    2.4937   -0.2240 C   0  0  0  0  0  0  0  0  0  0  0  0
    2.7066   -3.0115    0.8320 C   0  0  0  0  0  0  0  0  0  0  0  0
   -4.0162   -0.2187    1.6253 C   0  0  0  0  0  0  0  0  0  0  0  0
    2.1863    3.4938    0.6066 C   0  0  0  0  0  0  0  0  0  0  0  0
    1.1690   -1.7775   -1.8705 H   0  0  0  0  0  0  0  0  0  0  0  0
   -2.2603    1.7234   -0.5259 H   0  0  0  0  0  0  0  0  0  0  0  0
   -0.7947    2.1549    1.4104 H   0  0  0  0  0  0  0  0  0  0  0  0
   -1.1444   -1.9664    1.4827 H   0  0  0  0  0  0  0  0  0  0  0  0
    2.3473    0.6113   -1.1533 H   0  0  0  0  0  0  0  0  0  0  0  0
    0.3329    1.8223   -2.3801 H   0  0  0  0  0  0  0  0  0  0  0  0
   -1.4033   -2.0052   -1.7610 H   0  0  0  0  0  0  0  0  0  0  0  0
   -0.5086    0.7753   -4.7336 H   0  0  0  0  0  0  0  0  0  0  0  0
    2.5290   -2.3156    2.8534 H   0  0  0  0  0  0  0  0  0  0  0  0
    2.7052   -3.4900   -1.2671 H   0  0  0  0  0  0  0  0  0  0  0  0
   -4.4633    1.5887    0.5423 H   0  0  0  0  0  0  0  0  0  0  0  0
    0.5303    4.1312    1.8269 H   0  0  0  0  0  0  0  0  0  0  0  0
   -3.3008   -2.0242    2.5557 H   0  0  0  0  0  0  0  0  0  0  0  0
    3.6774    2.6027   -0.6669 H   0  0  0  0  0  0  0  0  0  0  0  0
    3.4356   -3.7760    1.0843 H   0  0  0  0  0  0  0  0  0  0  0  0
   -4.9979   -0.2782    2.0858 H   0  0  0  0  0  0  0  0  0  0  0  0
    2.7807    4.3787    0.8147 H   0  0  0  0  0  0  0  0  0  0  0  0
  1  8  1  0  0  0  0
  2  4  1  0  0  0  0
  2 14  1  0  0  0  0
  2 15  1  0  0  0  0
  3 15  2  0  0  0  0
  3 16  1  0  0  0  0
  4  5  1  0  0  0  0
  4  6  1  0  0  0  0
  4  7  1  0  0  0  0
  5  8  1  0  0  0  0
  5  9  2  0  0  0  0
  6 10  2  0  0  0  0
  6 12  1  0  0  0  0
  7 11  2  0  0  0  0
  7 13  1  0  0  0  0
  8 17  2  0  0  0  0
  9 18  1  0  0  0  0
  9 26  1  0  0  0  0
 10 19  1  0  0  0  0
 10 27  1  0  0  0  0
 11 20  1  0  0  0  0
 11 28  1  0  0  0  0
 12 21  2  0  0  0  0
 12 29  1  0  0  0  0
 13 22  2  0  0  0  0
 13 30  1  0  0  0  0
 14 16  2  0  0  0  0
 14 31  1  0  0  0  0
 15 32  1  0  0  0  0
 16 33  1  0  0  0  0
 17 23  1  0  0  0  0
 17 34  1  0  0  0  0
 18 23  2  0  0  0  0
 18 35  1  0  0  0  0
 19 24  2  0  0  0  0
 19 36  1  0  0  0  0
 20 25  2  0  0  0  0
 20 37  1  0  0  0  0
 21 24  1  0  0  0  0
 21 38  1  0  0  0  0
 22 25  1  0  0  0  0
 22 39  1  0  0  0  0
 23 40  1  0  0  0  0
 24 41  1  0  0  0  0
 25 42  1  0  0  0  0
M  END
> <DATABASE_ID>
DB00257

> <DATABASE_NAME>
drugbank

> <ORIGINAL_SOURCE>
PUBCHEM

> <ORIGINAL_SOURCE_URL>
https://pubchem.ncbi.nlm.nih.gov/rest/pug/compound/inchikey/VNFPBHJOKIVQEB-UHFFFAOYSA-N/SDF?record_type=3d

> <SMILES>
ClC1=CC=CC=C1C(N1C=CN=C1)(C1=CC=CC=C1)C1=CC=CC=C1

> <INCHI_IDENTIFIER>
InChI=1S/C22H17ClN2/c23-21-14-8-7-13-20(21)22(25-16-15-24-17-25,18-9-3-1-4-10-18)19-11-5-2-6-12-19/h1-17H

> <INCHI_KEY>
VNFPBHJOKIVQEB-UHFFFAOYSA-N

> <FORMULA>
C22H17ClN2

> <MOLECULAR_WEIGHT>
344.837

> <EXACT_MASS>
344.108026261

> <JCHEM_ACCEPTOR_COUNT>
1

> <JCHEM_AVERAGE_POLARIZABILITY>
36.248842985286885

> <JCHEM_BIOAVAILABILITY>
1

> <JCHEM_DONOR_COUNT>
0

> <JCHEM_FORMAL_CHARGE>
0

> <JCHEM_GHOSE_FILTER>
0

> <JCHEM_IUPAC>
1-[(2-chlorophenyl)diphenylmethyl]-1H-imidazole

> <ALOGPS_LOGP>
5.48

> <JCHEM_LOGP>
5.8394516706666675

> <ALOGPS_LOGS>
-5.37

> <JCHEM_MDDR_LIKE_RULE>
0

> <JCHEM_NUMBER_OF_RINGS>
4

> <JCHEM_PHYSIOLOGICAL_CHARGE>
0

> <JCHEM_PKA_STRONGEST_BASIC>
6.62392164146992

> <JCHEM_POLAR_SURFACE_AREA>
17.82

> <JCHEM_REFRACTIVITY>
103.76450000000004

> <JCHEM_ROTATABLE_BOND_COUNT>
4

> <JCHEM_RULE_OF_FIVE>
0

> <ALOGPS_SOLUBILITY>
1.47e-03 g/l

> <JCHEM_TRADITIONAL_IUPAC>
clotrimazole

> <JCHEM_VEBER_RULE>
1

$$$$

  Mrv1718012141811582D          

 83 89  0  0  0  0            999 V2000
   -4.8728    0.3152    0.0000 C   0  0  0  0  0  0  0  0  0  0  0  0
   -4.2355   -0.2143    0.0000 N   0  0  0  0  0  0  0  0  0  0  0  0
   -3.5341    0.2265    0.0000 C   0  0  1  0  0  0  0  0  0  0  0  0
   -3.7385    1.0320    0.0000 C   0  0  2  0  0  0  0  0  0  0  0  0
   -4.5646    1.0829    0.0000 C   0  0  1  0  0  0  0  0  0  0  0  0
   -0.8366    0.2097    0.0000 C   0  0  0  0  0  0  0  0  0  0  0  0
   -1.0935    0.9752    0.0000 C   0  0  2  0  0  0  0  0  0  0  0  0
   -1.9013    0.9717    0.0000 C   0  0  2  0  0  0  0  0  0  0  0  0
   -2.1492    0.2006    0.0000 N   0  0  0  0  0  0  0  0  0  0  0  0
   -2.8436   -0.2053    0.0000 C   0  0  0  0  0  0  0  0  0  0  0  0
   -0.1448   -0.1929    0.0000 C   0  0  1  0  0  0  0  0  0  0  0  0
   -0.1489   -1.0005    0.0000 C   0  0  0  0  0  0  0  0  0  0  0  0
   -0.8493   -1.4012    0.0000 N   0  0  0  0  0  0  0  0  0  0  0  0
    0.5496   -1.4075    0.0000 O   0  0  0  0  0  0  0  0  0  0  0  0
   -0.1630   -2.6146    0.0000 C   0  0  2  0  0  0  0  0  0  0  0  0
   -0.8555   -2.2048    0.0000 C   0  0  1  0  0  0  0  0  0  0  0  0
   -1.5571   -2.5968    0.0000 C   0  0  0  0  0  0  0  0  0  0  0  0
   -0.1679   -3.4246    0.0000 O   0  0  0  0  0  0  0  0  0  0  0  0
   -0.8717   -3.8181    0.0000 C   0  0  0  0  0  0  0  0  0  0  0  0
   -1.5704   -3.4095    0.0000 N   0  0  0  0  0  0  0  0  0  0  0  0
   -2.1753   -3.9432    0.0000 C   0  0  1  0  0  0  0  0  0  0  0  0
   -1.8525   -4.6876    0.0000 C   0  0  0  0  0  0  0  0  0  0  0  0
   -1.0473   -4.6076    0.0000 C   0  0  1  0  0  0  0  0  0  0  0  0
   -2.8774   -3.5404    0.0000 C   0  0  0  0  0  0  0  0  0  0  0  0
   -3.5761   -3.9423    0.0000 N   0  0  0  0  0  0  0  0  0  0  0  0
   -4.2750   -3.5404    0.0000 C   0  0  1  0  0  0  0  0  0  0  0  0
   -4.9739   -3.9423    0.0000 C   0  0  1  0  0  0  0  0  0  0  0  0
   -5.6684   -3.5404    0.0000 C   0  0  2  0  0  0  0  0  0  0  0  0
   -6.3673   -3.9423    0.0000 C   0  0  0  0  0  0  0  0  0  0  0  0
   -7.0668   -3.5399    0.0000 C   0  0  0  0  0  0  0  0  0  0  0  0
   -7.7718   -3.9382    0.0000 C   0  0  0  0  0  0  0  0  0  0  0  0
   -7.7752   -4.7485    0.0000 C   0  0  0  0  0  0  0  0  0  0  0  0
   -7.0672   -5.1508    0.0000 C   0  0  0  0  0  0  0  0  0  0  0  0
   -6.3643   -4.7509    0.0000 C   0  0  0  0  0  0  0  0  0  0  0  0
   -8.4680   -5.1430    0.0000 O   0  0  0  0  0  0  0  0  0  0  0  0
   -2.8816   -2.7327    0.0000 O   0  0  0  0  0  0  0  0  0  0  0  0
   -5.6725   -2.7327    0.0000 O   0  0  0  0  0  0  0  0  0  0  0  0
   -4.9779   -4.7495    0.0000 O   0  0  0  0  0  0  0  0  0  0  0  0
   -4.9360   -0.6154    0.0000 C   0  0  0  0  0  0  0  0  0  0  0  0
   -5.6350   -0.2137    0.0000 C   0  0  2  0  0  0  0  0  0  0  0  0
   -6.3297   -0.6154    0.0000 C   0  0  1  0  0  0  0  0  0  0  0  0
   -4.9401   -1.4270    0.0000 O   0  0  0  0  0  0  0  0  0  0  0  0
   -2.2998    1.6317    0.0000 O   0  0  0  0  0  0  0  0  0  0  0  0
   -0.8017    1.5648    0.0000 O   0  0  0  0  0  0  0  0  0  0  0  0
   -0.3498   -5.0134    0.0000 O   0  0  0  0  0  0  0  0  0  0  0  0
   -4.2791   -2.7327    0.0000 C   0  0  0  0  0  0  0  0  0  0  0  0
   -5.6391   -1.8134    0.0000 N   0  0  0  0  0  0  0  0  0  0  0  0
   -3.5802   -2.3227    0.0000 O   0  0  0  0  0  0  0  0  0  0  0  0
   -2.8419   -1.0130    0.0000 O   0  0  0  0  0  0  0  0  0  0  0  0
   -5.6391    0.5941    0.0000 H   0  0  0  0  0  0  0  0  0  0  0  0
   -2.2622   -2.1930    0.0000 O   0  0  0  0  0  0  0  0  0  0  0  0
   -3.2100    1.6702    0.0000 O   0  0  0  0  0  0  0  0  0  0  0  0
   -5.0073    1.7832    0.0000 C   0  0  0  0  0  0  0  0  0  0  0  0
    0.5580   -2.2065    0.0000 C   0  0  0  0  0  0  0  0  0  0  0  0
   -7.0474   -0.2016    0.0000 C   0  0  0  0  0  0  0  0  0  0  0  0
   -6.3292   -1.4438    0.0000 O   0  0  0  0  0  0  0  0  0  0  0  0
    0.5745    0.2182    0.0000 N   0  0  0  0  0  0  0  0  0  0  0  0
    1.2901   -0.1992    0.0000 C   0  0  0  0  0  0  0  0  0  0  0  0
    2.0094    0.2119    0.0000 C   0  0  0  0  0  0  0  0  0  0  0  0
    1.2865   -1.0276    0.0000 O   0  0  0  0  0  0  0  0  0  0  0  0
    2.7235   -0.2078    0.0000 C   0  0  0  0  0  0  0  0  0  0  0  0
    3.4424    0.2027    0.0000 C   0  0  0  0  0  0  0  0  0  0  0  0
    3.4465    1.0320    0.0000 C   0  0  0  0  0  0  0  0  0  0  0  0
    2.7257    1.4493    0.0000 C   0  0  0  0  0  0  0  0  0  0  0  0
    2.0098    1.0366    0.0000 C   0  0  0  0  0  0  0  0  0  0  0  0
    4.1611    1.4438    0.0000 C   0  0  0  0  0  0  0  0  0  0  0  0
    4.8776    1.0256    0.0000 C   0  0  0  0  0  0  0  0  0  0  0  0
    5.5959    1.4369    0.0000 C   0  0  0  0  0  0  0  0  0  0  0  0
    5.5988    2.2664    0.0000 C   0  0  0  0  0  0  0  0  0  0  0  0
    4.8775    2.6826    0.0000 C   0  0  0  0  0  0  0  0  0  0  0  0
    4.1623    2.2688    0.0000 C   0  0  0  0  0  0  0  0  0  0  0  0
    6.3166    2.6755    0.0000 C   0  0  0  0  0  0  0  0  0  0  0  0
    7.0339    2.2584    0.0000 C   0  0  0  0  0  0  0  0  0  0  0  0
    7.7516    2.6708    0.0000 C   0  0  0  0  0  0  0  0  0  0  0  0
    7.7534    3.5001    0.0000 C   0  0  0  0  0  0  0  0  0  0  0  0
    7.0316    3.9153    0.0000 C   0  0  0  0  0  0  0  0  0  0  0  0
    6.3169    3.5008    0.0000 C   0  0  0  0  0  0  0  0  0  0  0  0
    8.4680    3.9224    0.0000 O   0  0  0  0  0  0  0  0  0  0  0  0
    8.4515    4.7508    0.0000 C   0  0  0  0  0  0  0  0  0  0  0  0
    7.7262    5.1508    0.0000 C   0  0  0  0  0  0  0  0  0  0  0  0
    7.0169    4.7227    0.0000 C   0  0  0  0  0  0  0  0  0  0  0  0
    6.2914    5.1228    0.0000 C   0  0  0  0  0  0  0  0  0  0  0  0
    5.5821    4.6944    0.0000 C   0  0  0  0  0  0  0  0  0  0  0  0
 16 13  1  1  0  0  0
 15 16  1  0  0  0  0
 15 18  1  1  0  0  0
 16 17  1  0  0  0  0
  8 43  1  6  0  0  0
 17 20  1  0  0  0  0
  7 44  1  6  0  0  0
 19 20  1  0  0  0  0
  6  7  1  0  0  0  0
 23 45  1  6  0  0  0
 20 21  1  0  0  0  0
 26 46  1  0  0  0  0
 21 22  1  0  0  0  0
 22 23  1  0  0  0  0
 46 48  2  0  0  0  0
 23 19  1  0  0  0  0
 10 49  2  0  0  0  0
  7  8  1  0  0  0  0
 21 24  1  1  0  0  0
 40 50  1  6  0  0  0
  8  9  1  0  0  0  0
 17 51  2  0  0  0  0
 47 46  1  0  0  0  0
  4 52  1  6  0  0  0
  2  3  1  0  0  0  0
  5 53  1  6  0  0  0
  3  4  1  0  0  0  0
 15 54  1  0  0  0  0
  4  5  1  0  0  0  0
 41 55  1  0  0  0  0
  5  1  1  0  0  0  0
 41 56  1  6  0  0  0
  1  2  1  0  0  0  0
 11 57  1  6  0  0  0
 24 25  1  0  0  0  0
 57 58  1  0  0  0  0
 26 25  1  1  0  0  0
 58 59  1  0  0  0  0
 26 27  1  0  0  0  0
 58 60  2  0  0  0  0
 27 28  1  0  0  0  0
 59 61  2  0  0  0  0
 28 29  1  0  0  0  0
 61 62  1  0  0  0  0
 29 30  1  0  0  0  0
 62 63  2  0  0  0  0
 29 34  2  0  0  0  0
 63 64  1  0  0  0  0
 30 31  2  0  0  0  0
 64 65  2  0  0  0  0
 65 59  1  0  0  0  0
 31 32  1  0  0  0  0
 32 33  2  0  0  0  0
 66 67  2  0  0  0  0
 33 34  1  0  0  0  0
 67 68  1  0  0  0  0
 32 35  1  0  0  0  0
 68 69  2  0  0  0  0
 24 36  2  0  0  0  0
 69 70  1  0  0  0  0
  3 10  1  1  0  0  0
 70 71  2  0  0  0  0
 71 66  1  0  0  0  0
 63 66  1  0  0  0  0
 28 37  1  6  0  0  0
 10  9  1  0  0  0  0
 72 73  2  0  0  0  0
 27 38  1  6  0  0  0
 73 74  1  0  0  0  0
  2 39  1  0  0  0  0
 74 75  2  0  0  0  0
  6 11  1  0  0  0  0
 75 76  1  0  0  0  0
 39 40  1  0  0  0  0
 76 77  2  0  0  0  0
 77 72  1  0  0  0  0
 69 72  1  0  0  0  0
 40 41  1  0  0  0  0
 75 78  1  0  0  0  0
 11 12  1  0  0  0  0
 78 79  1  0  0  0  0
 12 13  1  0  0  0  0
 79 80  1  0  0  0  0
 39 42  2  0  0  0  0
 80 81  1  0  0  0  0
 40 47  1  0  0  0  0
 81 82  1  0  0  0  0
 12 14  2  0  0  0  0
 82 83  1  0  0  0  0
M  END
> <DATABASE_ID>
DB00362

> <DATABASE_NAME>
drugbank

> <SMILES>
[H][C@]1(NC(=O)[C@@H](NC(=O)[C@@H]2C[C@@H](O)CN2C(=O)[C@@H](NC(=O)[C@H](C[C@@H](O)[C@@H](O)NC(=O)[C@@H]2[C@@H](O)[C@@H](C)CN2C1=O)NC(=O)C1=CC=C(C=C1)C1=CC=C(C=C1)C1=CC=C(OCCCCC)C=C1)[C@@H](C)O)[C@H](O)[C@@H](O)C1=CC=C(O)C=C1)[C@@H](C)O

> <INCHI_IDENTIFIER>
InChI=1S/C58H73N7O17/c1-5-6-7-24-82-40-22-18-35(19-23-40)33-10-8-32(9-11-33)34-12-14-37(15-13-34)51(74)59-41-26-43(70)54(77)63-56(79)47-48(71)29(2)27-65(47)58(81)45(31(4)67)61-55(78)46(50(73)49(72)36-16-20-38(68)21-17-36)62-53(76)42-25-39(69)28-64(42)57(80)44(30(3)66)60-52(41)75/h8-23,29-31,39,41-50,54,66-73,77H,5-7,24-28H2,1-4H3,(H,59,74)(H,60,75)(H,61,78)(H,62,76)(H,63,79)/t29-,30+,31+,39+,41-,42-,43+,44-,45-,46-,47-,48-,49-,50-,54+/m0/s1

> <INCHI_KEY>
JHVAMHSQVVQIOT-MFAJLEFUSA-N

> <FORMULA>
C58H73N7O17

> <MOLECULAR_WEIGHT>
1140.2369

> <EXACT_MASS>
1139.506293945

> <JCHEM_ACCEPTOR_COUNT>
17

> <JCHEM_ATOM_COUNT>
155

> <JCHEM_AVERAGE_POLARIZABILITY>
122.77898704189768

> <JCHEM_BIOAVAILABILITY>
0

> <JCHEM_DONOR_COUNT>
14

> <JCHEM_FORMAL_CHARGE>
0

> <JCHEM_GHOSE_FILTER>
0

> <JCHEM_IUPAC>
N-[(3S,6S,9S,11R,15S,18S,20R,21R,24S,25S,26S)-6-[(1S,2S)-1,2-dihydroxy-2-(4-hydroxyphenyl)ethyl]-11,20,21,25-tetrahydroxy-3,15-bis[(1R)-1-hydroxyethyl]-26-methyl-2,5,8,14,17,23-hexaoxo-1,4,7,13,16,22-hexaazatricyclo[22.3.0.0^{9,13}]heptacosan-18-yl]-4-[4'-(pentyloxy)-[1,1'-biphenyl]-4-yl]benzamide

> <ALOGPS_LOGP>
1.87

> <JCHEM_LOGP>
-1.4572171509999994

> <ALOGPS_LOGS>
-4.31

> <JCHEM_MDDR_LIKE_RULE>
1

> <JCHEM_NUMBER_OF_RINGS>
7

> <JCHEM_PHYSIOLOGICAL_CHARGE>
0

> <JCHEM_PKA>
11.029550725960197

> <JCHEM_PKA_STRONGEST_ACIDIC>
9.457179266012721

> <JCHEM_PKA_STRONGEST_BASIC>
-3.484584020108345

> <JCHEM_POLAR_SURFACE_AREA>
377.41999999999985

> <JCHEM_REFRACTIVITY>
292.29319999999984

> <JCHEM_ROTATABLE_BOND_COUNT>
14

> <JCHEM_RULE_OF_FIVE>
0

> <ALOGPS_SOLUBILITY>
5.64e-02 g/l

> <JCHEM_TRADITIONAL_IUPAC>
N-[(3S,6S,9S,11R,15S,18S,20R,21R,24S,25S,26S)-6-[(1S,2S)-1,2-dihydroxy-2-(4-hydroxyphenyl)ethyl]-11,20,21,25-tetrahydroxy-3,15-bis[(1R)-1-hydroxyethyl]-26-methyl-2,5,8,14,17,23-hexaoxo-1,4,7,13,16,22-hexaazatricyclo[22.3.0.0^{9,13}]heptacosan-18-yl]-4-[4'-(pentyloxy)-[1,1'-biphenyl]-4-yl]benzamide

> <JCHEM_VEBER_RULE>
0

> <DRUGBANK_ID>
DB00362

> <SECONDARY_ACCESSION_NUMBERS>
APRD01301

> <DRUG_GROUPS>
approved; investigational

> <GENERIC_NAME>
Anidulafungin

> <SYNONYMS>
Anidulafungin; Anidulafungina; Anidulafungine; Anidulafunginum

> <PRODUCTS>
Eraxis; Gd-anidulafungin

> <INTERNATIONAL_BRANDS>
Ecalta

$$$$
441140
  -OEChem-10051719143D

 41 43  0     1  0  0  0  0  0999 V2000
    2.4502   -2.9483   -0.5177 Cl  0  0  0  0  0  0  0  0  0  0  0  0
   -0.1698   -1.3861   -0.3692 O   0  0  0  0  0  0  0  0  0  0  0  0
   -1.6882   -1.4171    1.9466 O   0  0  0  0  0  0  0  0  0  0  0  0
   -1.0924    1.9529    0.4115 O   0  0  0  0  0  0  0  0  0  0  0  0
   -5.3769    0.1201   -0.5155 O   0  0  0  0  0  0  0  0  0  0  0  0
    1.7229    2.7567    0.8454 O   0  0  0  0  0  0  0  0  0  0  0  0
    4.6149   -0.9787    0.1798 O   0  0  0  0  0  0  0  0  0  0  0  0
   -1.2526   -0.4149   -0.2717 C   0  0  2  0  0  0  0  0  0  0  0  0
   -1.9518   -0.3264   -1.6485 C   0  0  1  0  0  0  0  0  0  0  0  0
   -3.2528    0.4762   -1.5661 C   0  0  0  0  0  0  0  0  0  0  0  0
   -0.5769    0.8817    0.1565 C   0  0  0  0  0  0  0  0  0  0  0  0
   -2.2220   -0.8312    0.8113 C   0  0  0  0  0  0  0  0  0  0  0  0
   -1.0583    0.2220   -2.7663 C   0  0  0  0  0  0  0  0  0  0  0  0
    0.8373    0.6211    0.2231 C   0  0  0  0  0  0  0  0  0  0  0  0
    0.9936   -0.7114   -0.0976 C   0  0  0  0  0  0  0  0  0  0  0  0
   -4.1576   -0.0349   -0.4673 C   0  0  0  0  0  0  0  0  0  0  0  0
   -3.5486   -0.6786    0.7210 C   0  0  0  0  0  0  0  0  0  0  0  0
    1.8952    1.4502    0.5330 C   0  0  0  0  0  0  0  0  0  0  0  0
    2.2491   -1.2854   -0.1212 C   0  0  0  0  0  0  0  0  0  0  0  0
    3.1704    0.8838    0.5109 C   0  0  0  0  0  0  0  0  0  0  0  0
    3.3466   -0.4741    0.1860 C   0  0  0  0  0  0  0  0  0  0  0  0
   -2.0197   -0.6661    3.0962 C   0  0  0  0  0  0  0  0  0  0  0  0
    1.7568    3.6984   -0.2301 C   0  0  0  0  0  0  0  0  0  0  0  0
    5.3308   -0.9098   -1.0503 C   0  0  0  0  0  0  0  0  0  0  0  0
   -2.2103   -1.3541   -1.9470 H   0  0  0  0  0  0  0  0  0  0  0  0
   -3.7943    0.3867   -2.5153 H   0  0  0  0  0  0  0  0  0  0  0  0
   -3.0621    1.5395   -1.3847 H   0  0  0  0  0  0  0  0  0  0  0  0
   -0.7640    1.2595   -2.5783 H   0  0  0  0  0  0  0  0  0  0  0  0
   -0.1504   -0.3783   -2.8801 H   0  0  0  0  0  0  0  0  0  0  0  0
   -1.5878    0.1976   -3.7252 H   0  0  0  0  0  0  0  0  0  0  0  0
   -4.2320   -1.0120    1.4938 H   0  0  0  0  0  0  0  0  0  0  0  0
    4.0371    1.4968    0.7486 H   0  0  0  0  0  0  0  0  0  0  0  0
   -1.3625   -0.9931    3.9085 H   0  0  0  0  0  0  0  0  0  0  0  0
   -3.0484   -0.8557    3.4197 H   0  0  0  0  0  0  0  0  0  0  0  0
   -1.8534    0.4085    2.9552 H   0  0  0  0  0  0  0  0  0  0  0  0
    0.9913    3.4621   -0.9759 H   0  0  0  0  0  0  0  0  0  0  0  0
    2.7468    3.7052   -0.6967 H   0  0  0  0  0  0  0  0  0  0  0  0
    1.5540    4.6918    0.1790 H   0  0  0  0  0  0  0  0  0  0  0  0
    5.5216    0.1337   -1.3203 H   0  0  0  0  0  0  0  0  0  0  0  0
    4.7825   -1.4087   -1.8553 H   0  0  0  0  0  0  0  0  0  0  0  0
    6.2908   -1.4160   -0.9167 H   0  0  0  0  0  0  0  0  0  0  0  0
  1 19  1  0  0  0  0
  2  8  1  0  0  0  0
  2 15  1  0  0  0  0
  3 12  1  0  0  0  0
  3 22  1  0  0  0  0
  4 11  2  0  0  0  0
  5 16  2  0  0  0  0
  6 18  1  0  0  0  0
  6 23  1  0  0  0  0
  7 21  1  0  0  0  0
  7 24  1  0  0  0  0
  8  9  1  0  0  0  0
  8 11  1  0  0  0  0
  8 12  1  0  0  0  0
  9 10  1  0  0  0  0
  9 13  1  0  0  0  0
  9 25  1  0  0  0  0
 10 16  1  0  0  0  0
 10 26  1  0  0  0  0
 10 27  1  0  0  0  0
 11 14  1  0  0  0  0
 12 17  2  0  0  0  0
 13 28  1  0  0  0  0
 13 29  1  0  0  0  0
 13 30  1  0  0  0  0
 14 15  2  0  0  0  0
 14 18  1  0  0  0  0
 15 19  1  0  0  0  0
 16 17  1  0  0  0  0
 17 31  1  0  0  0  0
 18 20  2  0  0  0  0
 19 21  2  0  0  0  0
 20 21  1  0  0  0  0
 20 32  1  0  0  0  0
 22 33  1  0  0  0  0
 22 34  1  0  0  0  0
 22 35  1  0  0  0  0
 23 36  1  0  0  0  0
 23 37  1  0  0  0  0
 23 38  1  0  0  0  0
 24 39  1  0  0  0  0
 24 40  1  0  0  0  0
 24 41  1  0  0  0  0
M  END
> <DATABASE_ID>
DB00400

> <DATABASE_NAME>
drugbank

> <ORIGINAL_SOURCE>
PUBCHEM

> <ORIGINAL_SOURCE_URL>
https://pubchem.ncbi.nlm.nih.gov/rest/pug/compound/inchikey/DDUHZTYCFQRHIY-RBHXEPJQSA-N/SDF?record_type=3d

> <SMILES>
COC1=CC(OC)=C(Cl)C2=C1C(=O)[C@]1(O2)[C@H](C)CC(=O)C=C1OC

> <INCHI_IDENTIFIER>
InChI=1S/C17H17ClO6/c1-8-5-9(19)6-12(23-4)17(8)16(20)13-10(21-2)7-11(22-3)14(18)15(13)24-17/h6-8H,5H2,1-4H3/t8-,17+/m1/s1

> <INCHI_KEY>
DDUHZTYCFQRHIY-RBHXEPJQSA-N

> <FORMULA>
C17H17ClO6

> <MOLECULAR_WEIGHT>
352.766

> <EXACT_MASS>
352.071365983

> <JCHEM_ACCEPTOR_COUNT>
6

> <JCHEM_AVERAGE_POLARIZABILITY>
34.24576060438774

> <JCHEM_BIOAVAILABILITY>
1

> <JCHEM_DONOR_COUNT>
0

> <JCHEM_FORMAL_CHARGE>
0

> <JCHEM_GHOSE_FILTER>
1

> <JCHEM_IUPAC>
(2S,6'R)-7-chloro-2',4,6-trimethoxy-6'-methyl-3H-spiro[1-benzofuran-2,1'-cyclohexan]-2'-ene-3,4'-dione

> <ALOGPS_LOGP>
2.71

> <JCHEM_LOGP>
2.172137458333333

> <ALOGPS_LOGS>
-3.84

> <JCHEM_MDDR_LIKE_RULE>
0

> <JCHEM_NUMBER_OF_RINGS>
3

> <JCHEM_PHYSIOLOGICAL_CHARGE>
0

> <JCHEM_PKA_STRONGEST_ACIDIC>
17.68867051547463

> <JCHEM_PKA_STRONGEST_BASIC>
-4.322861287850263

> <JCHEM_POLAR_SURFACE_AREA>
71.06

> <JCHEM_REFRACTIVITY>
87.8459

> <JCHEM_ROTATABLE_BOND_COUNT>
3

> <JCHEM_RULE_OF_FIVE>
1

> <ALOGPS_SOLUBILITY>
5.04e-02 g/l

> <JCHEM_TRADITIONAL_IUPAC>
griseofulvin

> <JCHEM_VEBER_RULE>
0

$$$$

  Mrv0541 02231214442D          

 77 80  0  0  0  0            999 V2000
   -0.7403    3.8598    0.0000 C   0  0  1  0  0  0  0  0  0  0  0  0
   -1.5653    3.8598    0.0000 C   0  0  2  0  0  0  0  0  0  0  0  0
   -1.9778    3.1454    0.0000 N   0  0  0  0  0  0  0  0  0  0  0  0
   -0.3278    3.1454    0.0000 C   0  0  0  0  0  0  0  0  0  0  0  0
   -2.8028    3.1454    0.0000 C   0  0  0  0  0  0  0  0  0  0  0  0
   -0.7403    2.4309    0.0000 C   0  0  1  0  0  0  0  0  0  0  0  0
   -0.3278    1.7164    0.0000 C   0  0  0  0  0  0  0  0  0  0  0  0
    0.9096    1.0019    0.0000 O   0  0  0  0  0  0  0  0  0  0  0  0
    0.4971    0.2874    0.0000 C   0  0  1  0  0  0  0  0  0  0  0  0
   -0.3279    0.2874    0.0000 C   0  0  2  0  0  0  0  0  0  0  0  0
    0.9096   -0.4271    0.0000 C   0  0  0  0  0  0  0  0  0  0  0  0
   -3.2153    3.8598    0.0000 O   0  0  0  0  0  0  0  0  0  0  0  0
   -1.9778    4.5743    0.0000 N   0  0  0  0  0  0  0  0  0  0  0  0
   -0.3278    4.5743    0.0000 O   0  0  0  0  0  0  0  0  0  0  0  0
   -0.7403    1.0019    0.0000 N   0  0  0  0  0  0  0  0  0  0  0  0
    0.4972    1.7164    0.0000 O   0  0  0  0  0  0  0  0  0  0  0  0
   -0.7404   -0.4270    0.0000 C   0  0  0  0  0  0  0  0  0  0  0  0
   -1.5654   -0.4270    0.0000 O   0  0  0  0  0  0  0  0  0  0  0  0
   -0.3279   -1.1415    0.0000 N   0  0  0  0  0  0  0  0  0  0  0  0
    0.4419    2.6064    0.0000 N   0  0  0  0  0  0  0  0  0  0  0  0
   -2.8028    4.5743    0.0000 C   0  0  0  0  0  0  0  0  0  0  0  0
   -3.2153    5.2888    0.0000 C   0  0  0  0  0  0  0  0  0  0  0  0
   -4.0403    5.2888    0.0000 N   0  0  0  0  0  0  0  0  0  0  0  0
   -3.2149    2.5830    0.0000 C   0  0  2  0  0  0  0  0  0  0  0  0
   -3.9538    2.9498    0.0000 C   0  0  2  0  0  0  0  0  0  0  0  0
   -4.5310    2.3603    0.0000 C   0  0  0  0  0  0  0  0  0  0  0  0
   -4.1488    1.6293    0.0000 C   0  0  0  0  0  0  0  0  0  0  0  0
   -3.3354    1.7668    0.0000 N   0  0  0  0  0  0  0  0  0  0  0  0
   -4.0914    3.7632    0.0000 O   0  0  0  0  0  0  0  0  0  0  0  0
   -0.6429   -1.9040    0.0000 C   0  0  1  0  0  0  0  0  0  0  0  0
   -0.0151   -2.4392    0.0000 C   0  0  0  0  0  0  0  0  0  0  0  0
    0.6879   -2.0075    0.0000 C   0  0  2  0  0  0  0  0  0  0  0  0
    0.4946   -1.2055    0.0000 C   0  0  0  0  0  0  0  0  0  0  0  0
    1.4504   -2.3225    0.0000 O   0  0  0  0  0  0  0  0  0  0  0  0
   -1.4449   -2.0974    0.0000 C   0  0  0  0  0  0  0  0  0  0  0  0
   -1.6785   -2.8886    0.0000 O   0  0  0  0  0  0  0  0  0  0  0  0
   -2.0134   -1.4994    0.0000 N   0  0  0  0  0  0  0  0  0  0  0  0
   -3.0734    0.9676    0.0000 C   0  0  0  0  0  0  0  0  0  0  0  0
   -3.4538    0.2356    0.0000 C   0  0  1  0  0  0  0  0  0  0  0  0
   -2.2492    1.0042    0.0000 O   0  0  0  0  0  0  0  0  0  0  0  0
   -3.0101   -0.4599    0.0000 N   0  0  0  0  0  0  0  0  0  0  0  0
   -3.3905   -1.1920    0.0000 C   0  0  0  0  0  0  0  0  0  0  0  0
   -2.9468   -1.8875    0.0000 C   0  0  2  0  0  0  0  0  0  0  0  0
   -4.2147   -1.2285    0.0000 O   0  0  0  0  0  0  0  0  0  0  0  0
   -3.1941   -2.6745    0.0000 C   0  0  1  0  0  0  0  0  0  0  0  0
   -3.9994   -2.8538    0.0000 C   0  0  2  0  0  0  0  0  0  0  0  0
   -4.2467   -3.6409    0.0000 C   0  0  0  0  0  0  0  0  0  0  0  0
   -2.6362   -3.2822    0.0000 O   0  0  0  0  0  0  0  0  0  0  0  0
   -4.5573   -2.2461    0.0000 O   0  0  0  0  0  0  0  0  0  0  0  0
   -5.0694   -3.5790    0.0000 C   0  0  0  0  0  0  0  0  0  0  0  0
   -5.5344   -4.2605    0.0000 C   0  0  0  0  0  0  0  0  0  0  0  0
   -5.1766   -5.0039    0.0000 C   0  0  0  0  0  0  0  0  0  0  0  0
   -4.3540   -5.0658    0.0000 C   0  0  0  0  0  0  0  0  0  0  0  0
   -3.8890   -4.3843    0.0000 C   0  0  0  0  0  0  0  0  0  0  0  0
   -5.6416   -5.6855    0.0000 O   0  0  0  0  0  0  0  0  0  0  0  0
   -4.2780    0.1990    0.0000 C   0  0  1  0  0  0  0  0  0  0  0  0
   -4.7218    0.8945    0.0000 C   0  0  0  0  0  0  0  0  0  0  0  0
   -5.5460    0.8580    0.0000 C   0  0  0  0  0  0  0  0  0  0  0  0
   -5.9897    1.5535    0.0000 N   0  0  0  0  0  0  0  0  0  0  0  0
   -4.6585   -0.5330    0.0000 O   0  0  0  0  0  0  0  0  0  0  0  0
    5.4148    3.0496    0.0000 C   0  0  0  0  0  0  0  0  0  0  0  0
    4.7003    2.6371    0.0000 C   0  0  0  0  0  0  0  0  0  0  0  0
    4.7003    1.8121    0.0000 C   0  0  0  0  0  0  0  0  0  0  0  0
    5.4148    1.3996    0.0000 C   0  0  0  0  0  0  0  0  0  0  0  0
    6.1292    1.8121    0.0000 C   0  0  0  0  0  0  0  0  0  0  0  0
    6.1292    2.6371    0.0000 C   0  0  0  0  0  0  0  0  0  0  0  0
    3.9858    3.0496    0.0000 C   0  0  0  0  0  0  0  0  0  0  0  0
    3.2714    2.6371    0.0000 C   0  0  0  0  0  0  0  0  0  0  0  0
    3.2714    1.8121    0.0000 C   0  0  0  0  0  0  0  0  0  0  0  0
    3.9858    1.3996    0.0000 C   0  0  0  0  0  0  0  0  0  0  0  0
    2.5569    3.0496    0.0000 C   0  0  0  0  0  0  0  0  0  0  0  0
    1.8424    2.6371    0.0000 C   0  0  0  0  0  0  0  0  0  0  0  0
    2.5569    1.3996    0.0000 C   0  0  0  0  0  0  0  0  0  0  0  0
    1.1280    3.0496    0.0000 C   0  0  0  0  0  0  0  0  0  0  0  0
    5.4148    0.5746    0.0000 C   0  0  0  0  0  0  0  0  0  0  0  0
    3.9858    0.5746    0.0000 C   0  0  0  0  0  0  0  0  0  0  0  0
    1.1280    3.8746    0.0000 O   0  0  0  0  0  0  0  0  0  0  0  0
  1  2  1  0  0  0  0
  1  4  1  0  0  0  0
  2  3  1  0  0  0  0
  6  4  1  6  0  0  0
  3  5  1  0  0  0  0
  6  7  1  0  0  0  0
  9  8  1  6  0  0  0
  9 11  1  0  0  0  0
  9 10  1  0  0  0  0
  5 12  2  0  0  0  0
  2 13  1  6  0  0  0
  1 14  1  6  0  0  0
  7 15  1  0  0  0  0
 10 15  1  0  0  0  0
  7 16  2  0  0  0  0
 10 17  1  1  0  0  0
 17 18  2  0  0  0  0
 17 19  1  0  0  0  0
  6 20  1  1  0  0  0
 13 21  1  0  0  0  0
 21 22  1  0  0  0  0
 22 23  1  0  0  0  0
 24 28  1  0  0  0  0
 24 25  1  0  0  0  0
 25 26  1  0  0  0  0
 26 27  1  0  0  0  0
 27 28  1  0  0  0  0
 25 29  1  6  0  0  0
 24  5  1  1  0  0  0
 30 19  1  0  0  0  0
 19 33  1  0  0  0  0
 30 31  1  0  0  0  0
 32 31  1  0  0  0  0
 32 33  1  0  0  0  0
 32 34  1  6  0  0  0
 30 35  1  1  0  0  0
 35 36  2  0  0  0  0
 35 37  1  0  0  0  0
 28 38  1  0  0  0  0
 38 40  2  0  0  0  0
 39 41  1  0  0  0  0
 41 42  1  0  0  0  0
 42 44  2  0  0  0  0
 43 37  1  0  0  0  0
 43 42  1  1  0  0  0
 43 45  1  0  0  0  0
 45 46  1  0  0  0  0
 46 47  1  0  0  0  0
 45 48  1  6  0  0  0
 46 49  1  6  0  0  0
 47 50  2  0  0  0  0
 47 54  1  0  0  0  0
 50 51  1  0  0  0  0
 51 52  2  0  0  0  0
 52 53  1  0  0  0  0
 53 54  2  0  0  0  0
 52 55  1  0  0  0  0
 39 56  1  0  0  0  0
 56 57  1  0  0  0  0
 57 58  1  0  0  0  0
 58 59  1  0  0  0  0
 56 60  1  6  0  0  0
 39 38  1  1  0  0  0
 61 62  1  0  0  0  0
 61 66  1  0  0  0  0
 67 62  1  0  0  0  0
 63 64  1  0  0  0  0
 70 63  1  0  0  0  0
 64 65  1  0  0  0  0
 64 75  1  0  0  0  0
 65 66  1  0  0  0  0
 67 68  1  0  0  0  0
 71 68  1  0  0  0  0
 69 70  1  0  0  0  0
 73 69  1  0  0  0  0
 70 76  1  0  0  0  0
 71 72  1  0  0  0  0
 74 72  1  0  0  0  0
 74 77  2  0  0  0  0
 20 74  1  0  0  0  0
M  END
> <DATABASE_ID>
DB00520

> <DATABASE_NAME>
drugbank

> <SMILES>
CCC(C)CC(C)CCCCCCCCC(=O)N[C@H]1C[C@@H](O)[C@@H](NCCN)NC(=O)[C@@H]2[C@@H](O)CCN2C(=O)[C@@H](NC(=O)[C@@H](NC(=O)[C@@H]2C[C@@H](O)CN2C(=O)[C@@H](NC1=O)[C@@H](C)O)[C@H](O)[C@@H](O)C1=CC=C(O)C=C1)[C@H](O)CCN

> <INCHI_IDENTIFIER>
InChI=1S/C52H88N10O15/c1-5-28(2)24-29(3)12-10-8-6-7-9-11-13-39(69)56-34-26-38(68)46(55-22-21-54)60-50(75)43-37(67)19-23-61(43)52(77)41(36(66)18-20-53)58-49(74)42(45(71)44(70)31-14-16-32(64)17-15-31)59-48(73)35-25-33(65)27-62(35)51(76)40(30(4)63)57-47(34)72/h14-17,28-30,33-38,40-46,55,63-68,70-71H,5-13,18-27,53-54H2,1-4H3,(H,56,69)(H,57,72)(H,58,74)(H,59,73)(H,60,75)/t28?,29?,30-,33-,34?,35+,36-,37+,38-,40+,41+,42+,43+,44+,45+,46+/m1/s1

> <INCHI_KEY>
JYIKNQVWKBUSNH-QWDBRQCVSA-N

> <FORMULA>
C52H88N10O15

> <MOLECULAR_WEIGHT>
1093.3131

> <EXACT_MASS>
1092.643062196

> <JCHEM_ACCEPTOR_COUNT>
18

> <JCHEM_AVERAGE_POLARIZABILITY>
117.51790506775998

> <JCHEM_BIOAVAILABILITY>
0

> <JCHEM_DONOR_COUNT>
16

> <JCHEM_FORMAL_CHARGE>
0

> <JCHEM_GHOSE_FILTER>
0

> <JCHEM_IUPAC>
N-[(3S,6S,9S,11R,15S,18S,20R,21S,24S,25S)-3-[(1R)-3-amino-1-hydroxypropyl]-21-[(2-aminoethyl)amino]-6-[(1S,2S)-1,2-dihydroxy-2-(4-hydroxyphenyl)ethyl]-11,20,25-trihydroxy-15-[(1R)-1-hydroxyethyl]-2,5,8,14,17,23-hexaoxo-1,4,7,13,16,22-hexaazatricyclo[22.3.0.0⁹,¹³]heptacosan-18-yl]-10,12-dimethyltetradecanamide

> <ALOGPS_LOGP>
0.17

> <JCHEM_LOGP>
-4.824428610646292

> <ALOGPS_LOGS>
-3.47

> <JCHEM_MDDR_LIKE_RULE>
1

> <JCHEM_NUMBER_OF_RINGS>
4

> <JCHEM_PHYSIOLOGICAL_CHARGE>
2

> <JCHEM_PKA>
11.287310993586567

> <JCHEM_PKA_STRONGEST_ACIDIC>
8.752074792557577

> <JCHEM_PKA_STRONGEST_BASIC>
9.75694406706686

> <JCHEM_POLAR_SURFACE_AREA>
412.03000000000003

> <JCHEM_REFRACTIVITY>
278.7797

> <JCHEM_ROTATABLE_BOND_COUNT>
23

> <JCHEM_RULE_OF_FIVE>
0

> <ALOGPS_SOLUBILITY>
3.67e-01 g/l

> <JCHEM_TRADITIONAL_IUPAC>
caspofungin

> <JCHEM_VEBER_RULE>
0

> <DRUGBANK_ID>
DB00520

> <SECONDARY_ACCESSION_NUMBERS>
APRD00199

> <DRUG_GROUPS>
approved

> <GENERIC_NAME>
Caspofungin

> <SYNONYMS>
(4R,5S)-5-((2-Aminoethyl)amino)-N(sup 2)-(10,12-dimethyltetradecanoyl)-4-hydroxy-L-ornithyl-L-threonyl-trans-4-hydroxy-L-prolyl-(S)-4-hydroxy-4-(p-hydroxyphenyl)-L-threonyl-threo-3-hydroxy-L-ornithyl-trans-3-hydroxy-L-proline cyclic (6-1)-peptide; Caspofungin; Caspofungina

> <PRODUCTS>
Cancidas; Caspofungin Acetate; Caspofungin Acetate for Injection; Caspofungin Powder for Injection; Caspofungin acetate; Caspofungin for Injection

> <SALTS>
Caspofungin acetate

$$$$
5510
  -OEChem-10051719173D

 39 41  0     0  0  0  0  0  0999 V2000
   -2.4763   -3.4228    1.2925 S   0  0  0  0  0  0  0  0  0  0  0  0
   -0.7762   -1.4178    1.3389 O   0  0  0  0  0  0  0  0  0  0  0  0
   -2.4291   -1.2537   -0.4240 N   0  0  0  0  0  0  0  0  0  0  0  0
    2.4469    0.1672    0.5702 C   0  0  0  0  0  0  0  0  0  0  0  0
    2.8700   -0.6266   -0.5224 C   0  0  0  0  0  0  0  0  0  0  0  0
   -2.3539    0.1882   -0.4963 C   0  0  0  0  0  0  0  0  0  0  0  0
    0.4138   -1.1594    0.7311 C   0  0  0  0  0  0  0  0  0  0  0  0
    1.2161   -0.1125    1.1861 C   0  0  0  0  0  0  0  0  0  0  0  0
   -2.3567    0.8967    0.6766 C   0  0  0  0  0  0  0  0  0  0  0  0
   -2.2839    2.2879    0.6061 C   0  0  0  0  0  0  0  0  0  0  0  0
    2.0499   -1.6766   -0.9669 C   0  0  0  0  0  0  0  0  0  0  0  0
    0.8301   -1.9401   -0.3432 C   0  0  0  0  0  0  0  0  0  0  0  0
    3.2672    1.2169    1.0148 C   0  0  0  0  0  0  0  0  0  0  0  0
   -2.2830    0.7702   -1.7349 C   0  0  0  0  0  0  0  0  0  0  0  0
    4.1008   -0.3472   -1.1383 C   0  0  0  0  0  0  0  0  0  0  0  0
   -1.9067   -1.9780    0.6608 C   0  0  0  0  0  0  0  0  0  0  0  0
   -2.2105    2.9202   -0.6351 C   0  0  0  0  0  0  0  0  0  0  0  0
   -2.2099    2.1614   -1.8055 C   0  0  0  0  0  0  0  0  0  0  0  0
   -3.0138   -1.9531   -1.5751 C   0  0  0  0  0  0  0  0  0  0  0  0
    4.4870    1.4804    0.3908 C   0  0  0  0  0  0  0  0  0  0  0  0
    4.9029    0.6998   -0.6837 C   0  0  0  0  0  0  0  0  0  0  0  0
   -2.2848    3.0989    1.8575 C   0  0  0  0  0  0  0  0  0  0  0  0
    0.8755    0.4889    2.0272 H   0  0  0  0  0  0  0  0  0  0  0  0
   -2.4497    0.4245    1.6495 H   0  0  0  0  0  0  0  0  0  0  0  0
    2.3565   -2.3009   -1.8036 H   0  0  0  0  0  0  0  0  0  0  0  0
    0.2312   -2.7679   -0.7113 H   0  0  0  0  0  0  0  0  0  0  0  0
    2.9619    1.8401    1.8528 H   0  0  0  0  0  0  0  0  0  0  0  0
   -2.2612    0.2158   -2.6660 H   0  0  0  0  0  0  0  0  0  0  0  0
    4.4460   -0.9443   -1.9798 H   0  0  0  0  0  0  0  0  0  0  0  0
   -2.1502    4.0031   -0.7046 H   0  0  0  0  0  0  0  0  0  0  0  0
   -2.1476    2.6541   -2.7715 H   0  0  0  0  0  0  0  0  0  0  0  0
   -2.2782   -1.9835   -2.3852 H   0  0  0  0  0  0  0  0  0  0  0  0
   -3.9285   -1.4464   -1.8991 H   0  0  0  0  0  0  0  0  0  0  0  0
   -3.2702   -2.9880   -1.3394 H   0  0  0  0  0  0  0  0  0  0  0  0
    5.1118    2.2955    0.7443 H   0  0  0  0  0  0  0  0  0  0  0  0
    5.8526    0.9055   -1.1690 H   0  0  0  0  0  0  0  0  0  0  0  0
   -2.9919    2.6888    2.5864 H   0  0  0  0  0  0  0  0  0  0  0  0
   -1.2838    3.1063    2.3003 H   0  0  0  0  0  0  0  0  0  0  0  0
   -2.5858    4.1342    1.6651 H   0  0  0  0  0  0  0  0  0  0  0  0
  1 16  2  0  0  0  0
  2  7  1  0  0  0  0
  2 16  1  0  0  0  0
  3  6  1  0  0  0  0
  3 16  1  0  0  0  0
  3 19  1  0  0  0  0
  4  5  1  0  0  0  0
  4  8  1  0  0  0  0
  4 13  2  0  0  0  0
  5 11  1  0  0  0  0
  5 15  2  0  0  0  0
  6  9  1  0  0  0  0
  6 14  2  0  0  0  0
  7  8  2  0  0  0  0
  7 12  1  0  0  0  0
  8 23  1  0  0  0  0
  9 10  2  0  0  0  0
  9 24  1  0  0  0  0
 10 17  1  0  0  0  0
 10 22  1  0  0  0  0
 11 12  2  0  0  0  0
 11 25  1  0  0  0  0
 12 26  1  0  0  0  0
 13 20  1  0  0  0  0
 13 27  1  0  0  0  0
 14 18  1  0  0  0  0
 14 28  1  0  0  0  0
 15 21  1  0  0  0  0
 15 29  1  0  0  0  0
 17 18  2  0  0  0  0
 17 30  1  0  0  0  0
 18 31  1  0  0  0  0
 19 32  1  0  0  0  0
 19 33  1  0  0  0  0
 19 34  1  0  0  0  0
 20 21  2  0  0  0  0
 20 35  1  0  0  0  0
 21 36  1  0  0  0  0
 22 37  1  0  0  0  0
 22 38  1  0  0  0  0
 22 39  1  0  0  0  0
M  END
> <DATABASE_ID>
DB00525

> <DATABASE_NAME>
drugbank

> <ORIGINAL_SOURCE>
PUBCHEM

> <ORIGINAL_SOURCE_URL>
https://pubchem.ncbi.nlm.nih.gov/rest/pug/compound/inchikey/FUSNMLFNXJSCDI-UHFFFAOYSA-N/SDF?record_type=3d

> <SMILES>
CN(C(=S)OC1=CC2=CC=CC=C2C=C1)C1=CC=CC(C)=C1

> <INCHI_IDENTIFIER>
InChI=1S/C19H17NOS/c1-14-6-5-9-17(12-14)20(2)19(22)21-18-11-10-15-7-3-4-8-16(15)13-18/h3-13H,1-2H3

> <INCHI_KEY>
FUSNMLFNXJSCDI-UHFFFAOYSA-N

> <FORMULA>
C19H17NOS

> <MOLECULAR_WEIGHT>
307.409

> <EXACT_MASS>
307.103084861

> <JCHEM_ACCEPTOR_COUNT>
1

> <JCHEM_AVERAGE_POLARIZABILITY>
34.22480822617392

> <JCHEM_BIOAVAILABILITY>
1

> <JCHEM_DONOR_COUNT>
0

> <JCHEM_FORMAL_CHARGE>
0

> <JCHEM_GHOSE_FILTER>
0

> <JCHEM_IUPAC>
N-methyl-N-(3-methylphenyl)-1-(naphthalen-2-yloxy)methanethioamide

> <ALOGPS_LOGP>
4.87

> <JCHEM_LOGP>
5.745039567000001

> <ALOGPS_LOGS>
-5.75

> <JCHEM_MDDR_LIKE_RULE>
0

> <JCHEM_NUMBER_OF_RINGS>
3

> <JCHEM_PHYSIOLOGICAL_CHARGE>
0

> <JCHEM_PKA_STRONGEST_BASIC>
0.07504048749554171

> <JCHEM_POLAR_SURFACE_AREA>
12.47

> <JCHEM_REFRACTIVITY>
94.92040000000004

> <JCHEM_ROTATABLE_BOND_COUNT>
3

> <JCHEM_RULE_OF_FIVE>
0

> <ALOGPS_SOLUBILITY>
5.46e-04 g/l

> <JCHEM_TRADITIONAL_IUPAC>
tolnaftate

> <JCHEM_VEBER_RULE>
1

$$$$
71616
  -OEChem-10051719183D

 39 41  0     1  0  0  0  0  0999 V2000
   -0.9996    1.2212   -1.9654 F   0  0  0  0  0  0  0  0  0  0  0  0
    2.8701    1.3731   -2.1001 F   0  0  0  0  0  0  0  0  0  0  0  0
   -5.1539    2.1719    0.0905 F   0  0  0  0  0  0  0  0  0  0  0  0
    0.2829   -0.4647    1.7018 O   0  0  0  0  0  0  0  0  0  0  0  0
   -0.6493   -2.2307   -0.4379 N   0  0  0  0  0  0  0  0  0  0  0  0
    2.9682    0.1732    1.3242 N   0  0  0  0  0  0  0  0  0  0  0  0
   -0.2755   -3.2364    0.3458 N   0  0  0  0  0  0  0  0  0  0  0  0
   -2.3465   -3.5614   -0.5698 N   0  0  0  0  0  0  0  0  0  0  0  0
    5.1028   -0.2105    0.2737 N   0  0  0  0  0  0  0  0  0  0  0  0
    0.0549    0.0832    0.3958 C   0  0  1  0  0  0  0  0  0  0  0  0
    1.1314    1.2132    0.1432 C   0  0  1  0  0  0  0  0  0  0  0  0
    0.2421   -1.0819   -0.6282 C   0  0  0  0  0  0  0  0  0  0  0  0
   -1.3688    0.6549    0.3097 C   0  0  0  0  0  0  0  0  0  0  0  0
    1.0004    2.4174    1.0931 C   0  0  0  0  0  0  0  0  0  0  0  0
    2.5737    0.7041    0.1673 C   0  0  0  0  0  0  0  0  0  0  0  0
   -1.7896    1.1878   -0.8833 C   0  0  0  0  0  0  0  0  0  0  0  0
   -2.1569    0.6066    1.4329 C   0  0  0  0  0  0  0  0  0  0  0  0
    3.3202    0.8303   -0.9645 C   0  0  0  0  0  0  0  0  0  0  0  0
   -3.0825    1.7060   -0.9582 C   0  0  0  0  0  0  0  0  0  0  0  0
   -3.4496    1.1249    1.3580 C   0  0  0  0  0  0  0  0  0  0  0  0
   -1.8655   -2.4114   -0.9816 C   0  0  0  0  0  0  0  0  0  0  0  0
   -3.9125    1.6745    0.1625 C   0  0  0  0  0  0  0  0  0  0  0  0
    4.6070    0.3450   -0.8515 C   0  0  0  0  0  0  0  0  0  0  0  0
    4.2419   -0.2638    1.3080 C   0  0  0  0  0  0  0  0  0  0  0  0
   -1.3454   -4.0265    0.2341 C   0  0  0  0  0  0  0  0  0  0  0  0
    0.9522    1.6211   -0.8592 H   0  0  0  0  0  0  0  0  0  0  0  0
    1.2517   -1.5041   -0.5475 H   0  0  0  0  0  0  0  0  0  0  0  0
    0.1182   -0.7585   -1.6671 H   0  0  0  0  0  0  0  0  0  0  0  0
    1.1099    2.1166    2.1409 H   0  0  0  0  0  0  0  0  0  0  0  0
    0.0320    2.9149    0.9840 H   0  0  0  0  0  0  0  0  0  0  0  0
    1.7739    3.1654    0.8829 H   0  0  0  0  0  0  0  0  0  0  0  0
   -0.2405   -1.2769    1.8043 H   0  0  0  0  0  0  0  0  0  0  0  0
   -1.8345    0.1958    2.3827 H   0  0  0  0  0  0  0  0  0  0  0  0
   -3.4430    2.1335   -1.8890 H   0  0  0  0  0  0  0  0  0  0  0  0
   -4.0960    1.1023    2.2305 H   0  0  0  0  0  0  0  0  0  0  0  0
   -2.3514   -1.7188   -1.6539 H   0  0  0  0  0  0  0  0  0  0  0  0
    5.2955    0.3907   -1.6885 H   0  0  0  0  0  0  0  0  0  0  0  0
    4.6135   -0.7054    2.2245 H   0  0  0  0  0  0  0  0  0  0  0  0
   -1.3975   -4.9707    0.7555 H   0  0  0  0  0  0  0  0  0  0  0  0
  1 16  1  0  0  0  0
  2 18  1  0  0  0  0
  3 22  1  0  0  0  0
  4 10  1  0  0  0  0
  4 32  1  0  0  0  0
  5  7  1  0  0  0  0
  5 12  1  0  0  0  0
  5 21  1  0  0  0  0
  6 15  2  0  0  0  0
  6 24  1  0  0  0  0
  7 25  2  0  0  0  0
  8 21  2  0  0  0  0
  8 25  1  0  0  0  0
  9 23  1  0  0  0  0
  9 24  2  0  0  0  0
 10 11  1  0  0  0  0
 10 12  1  0  0  0  0
 10 13  1  0  0  0  0
 11 14  1  0  0  0  0
 11 15  1  0  0  0  0
 11 26  1  0  0  0  0
 12 27  1  0  0  0  0
 12 28  1  0  0  0  0
 13 16  2  0  0  0  0
 13 17  1  0  0  0  0
 14 29  1  0  0  0  0
 14 30  1  0  0  0  0
 14 31  1  0  0  0  0
 15 18  1  0  0  0  0
 16 19  1  0  0  0  0
 17 20  2  0  0  0  0
 17 33  1  0  0  0  0
 18 23  2  0  0  0  0
 19 22  2  0  0  0  0
 19 34  1  0  0  0  0
 20 22  1  0  0  0  0
 20 35  1  0  0  0  0
 21 36  1  0  0  0  0
 23 37  1  0  0  0  0
 24 38  1  0  0  0  0
 25 39  1  0  0  0  0
M  END
> <DATABASE_ID>
DB00582

> <DATABASE_NAME>
drugbank

> <ORIGINAL_SOURCE>
PUBCHEM

> <ORIGINAL_SOURCE_URL>
https://pubchem.ncbi.nlm.nih.gov/rest/pug/compound/inchikey/BCEHBSKCWLPMDN-MGPLVRAMSA-N/SDF?record_type=3d

> <SMILES>
C[C@@H](C1=NC=NC=C1F)[C@](O)(CN1C=NC=N1)C1=C(F)C=C(F)C=C1

> <INCHI_IDENTIFIER>
InChI=1S/C16H14F3N5O/c1-10(15-14(19)5-20-7-22-15)16(25,6-24-9-21-8-23-24)12-3-2-11(17)4-13(12)18/h2-5,7-10,25H,6H2,1H3/t10-,16+/m0/s1

> <INCHI_KEY>
BCEHBSKCWLPMDN-MGPLVRAMSA-N

> <FORMULA>
C16H14F3N5O

> <MOLECULAR_WEIGHT>
349.3105

> <EXACT_MASS>
349.11504471

> <JCHEM_ACCEPTOR_COUNT>
5

> <JCHEM_AVERAGE_POLARIZABILITY>
30.54426257953428

> <JCHEM_BIOAVAILABILITY>
1

> <JCHEM_DONOR_COUNT>
1

> <JCHEM_FORMAL_CHARGE>
0

> <JCHEM_GHOSE_FILTER>
1

> <JCHEM_IUPAC>
(2R,3S)-2-(2,4-difluorophenyl)-3-(5-fluoropyrimidin-4-yl)-1-(1H-1,2,4-triazol-1-yl)butan-2-ol

> <ALOGPS_LOGP>
1.65

> <JCHEM_LOGP>
1.8230325923333337

> <ALOGPS_LOGS>
-3.55

> <JCHEM_MDDR_LIKE_RULE>
0

> <JCHEM_NUMBER_OF_RINGS>
3

> <JCHEM_PHYSIOLOGICAL_CHARGE>
0

> <JCHEM_PKA_STRONGEST_ACIDIC>
12.708208344255155

> <JCHEM_PKA_STRONGEST_BASIC>
2.268914242488986

> <JCHEM_POLAR_SURFACE_AREA>
76.72

> <JCHEM_REFRACTIVITY>
95.27799999999999

> <JCHEM_ROTATABLE_BOND_COUNT>
5

> <JCHEM_RULE_OF_FIVE>
1

> <ALOGPS_SOLUBILITY>
9.78e-02 g/l

> <JCHEM_TRADITIONAL_IUPAC>
voriconazole

> <JCHEM_VEBER_RULE>
0

$$$$
47472
  -OEChem-10051719203D

 42 44  0     1  0  0  0  0  0999 V2000
    0.6117    1.7973   -2.4142 Cl  0  0  0  0  0  0  0  0  0  0  0  0
   -3.3586    2.1667    1.3899 Cl  0  0  0  0  0  0  0  0  0  0  0  0
    7.1706   -0.6812   -0.0766 Cl  0  0  0  0  0  0  0  0  0  0  0  0
   -2.0307    0.4845   -1.0521 S   0  0  0  0  0  0  0  0  0  0  0  0
   -3.0915   -2.2472   -0.0678 N   0  0  0  0  0  0  0  0  0  0  0  0
   -5.1875   -2.8191   -0.4229 N   0  0  0  0  0  0  0  0  0  0  0  0
   -1.1209   -0.6958    0.0145 C   0  0  2  0  0  0  0  0  0  0  0  0
    0.4021   -0.5822   -0.2053 C   0  0  0  0  0  0  0  0  0  0  0  0
   -1.6530   -2.1068   -0.2948 C   0  0  0  0  0  0  0  0  0  0  0  0
    1.2716   -1.4933    0.6773 C   0  0  0  0  0  0  0  0  0  0  0  0
    2.7540   -1.2882    0.4866 C   0  0  0  0  0  0  0  0  0  0  0  0
   -1.3495    2.0384   -0.4938 C   0  0  0  0  0  0  0  0  0  0  0  0
   -3.7674   -1.7907    1.0133 C   0  0  0  0  0  0  0  0  0  0  0  0
   -3.9655   -2.8553   -0.9060 C   0  0  0  0  0  0  0  0  0  0  0  0
    3.4270   -2.0352   -0.4679 C   0  0  0  0  0  0  0  0  0  0  0  0
    3.4182   -0.3573    1.2704 C   0  0  0  0  0  0  0  0  0  0  0  0
   -5.0710   -2.1562    0.7731 C   0  0  0  0  0  0  0  0  0  0  0  0
    4.7980   -1.8464   -0.6430 C   0  0  0  0  0  0  0  0  0  0  0  0
    4.7891   -0.1685    1.0952 C   0  0  0  0  0  0  0  0  0  0  0  0
   -0.2061    2.5799   -1.1025 C   0  0  0  0  0  0  0  0  0  0  0  0
   -1.9479    2.7412    0.5640 C   0  0  0  0  0  0  0  0  0  0  0  0
    5.4791   -0.9130    0.1386 C   0  0  0  0  0  0  0  0  0  0  0  0
    0.3250    3.7932   -0.6648 C   0  0  0  0  0  0  0  0  0  0  0  0
   -1.4167    3.9544    1.0016 C   0  0  0  0  0  0  0  0  0  0  0  0
   -0.2801    4.4805    0.3872 C   0  0  0  0  0  0  0  0  0  0  0  0
   -1.3317   -0.4368    1.0581 H   0  0  0  0  0  0  0  0  0  0  0  0
    0.6428   -0.7950   -1.2542 H   0  0  0  0  0  0  0  0  0  0  0  0
    0.7347    0.4319    0.0262 H   0  0  0  0  0  0  0  0  0  0  0  0
   -1.1891   -2.8532    0.3597 H   0  0  0  0  0  0  0  0  0  0  0  0
   -1.4444   -2.3958   -1.3323 H   0  0  0  0  0  0  0  0  0  0  0  0
    1.0158   -1.3321    1.7328 H   0  0  0  0  0  0  0  0  0  0  0  0
    1.0375   -2.5460    0.4779 H   0  0  0  0  0  0  0  0  0  0  0  0
   -3.3048   -1.2786    1.8449 H   0  0  0  0  0  0  0  0  0  0  0  0
   -3.6740   -3.3062   -1.8449 H   0  0  0  0  0  0  0  0  0  0  0  0
    2.9049   -2.7627   -1.0827 H   0  0  0  0  0  0  0  0  0  0  0  0
    2.8889    0.2288    2.0163 H   0  0  0  0  0  0  0  0  0  0  0  0
   -5.9307   -1.9795    1.4028 H   0  0  0  0  0  0  0  0  0  0  0  0
    5.3225   -2.4334   -1.3926 H   0  0  0  0  0  0  0  0  0  0  0  0
    5.3065    0.5626    1.7110 H   0  0  0  0  0  0  0  0  0  0  0  0
    1.2103    4.2188   -1.1307 H   0  0  0  0  0  0  0  0  0  0  0  0
   -1.8736    4.5048    1.8204 H   0  0  0  0  0  0  0  0  0  0  0  0
    0.1336    5.4250    0.7282 H   0  0  0  0  0  0  0  0  0  0  0  0
  1 20  1  0  0  0  0
  2 21  1  0  0  0  0
  3 22  1  0  0  0  0
  4  7  1  0  0  0  0
  4 12  1  0  0  0  0
  5  9  1  0  0  0  0
  5 13  1  0  0  0  0
  5 14  1  0  0  0  0
  6 14  2  0  0  0  0
  6 17  1  0  0  0  0
  7  8  1  0  0  0  0
  7  9  1  0  0  0  0
  7 26  1  0  0  0  0
  8 10  1  0  0  0  0
  8 27  1  0  0  0  0
  8 28  1  0  0  0  0
  9 29  1  0  0  0  0
  9 30  1  0  0  0  0
 10 11  1  0  0  0  0
 10 31  1  0  0  0  0
 10 32  1  0  0  0  0
 11 15  2  0  0  0  0
 11 16  1  0  0  0  0
 12 20  2  0  0  0  0
 12 21  1  0  0  0  0
 13 17  2  0  0  0  0
 13 33  1  0  0  0  0
 14 34  1  0  0  0  0
 15 18  1  0  0  0  0
 15 35  1  0  0  0  0
 16 19  2  0  0  0  0
 16 36  1  0  0  0  0
 17 37  1  0  0  0  0
 18 22  2  0  0  0  0
 18 38  1  0  0  0  0
 19 22  1  0  0  0  0
 19 39  1  0  0  0  0
 20 23  1  0  0  0  0
 21 24  2  0  0  0  0
 23 25  2  0  0  0  0
 23 40  1  0  0  0  0
 24 25  1  0  0  0  0
 24 41  1  0  0  0  0
 25 42  1  0  0  0  0
M  END
> <DATABASE_ID>
DB00639

> <DATABASE_NAME>
drugbank

> <ORIGINAL_SOURCE>
PUBCHEM

> <ORIGINAL_SOURCE_URL>
https://pubchem.ncbi.nlm.nih.gov/rest/pug/compound/inchikey/SWLMUYACZKCSHZ-UHFFFAOYSA-N/SDF?record_type=3d

> <SMILES>
ClC1=CC=C(CCC(CN2C=CN=C2)SC2=C(Cl)C=CC=C2Cl)C=C1

> <INCHI_IDENTIFIER>
InChI=1S/C19H17Cl3N2S/c20-15-7-4-14(5-8-15)6-9-16(12-24-11-10-23-13-24)25-19-17(21)2-1-3-18(19)22/h1-5,7-8,10-11,13,16H,6,9,12H2

> <INCHI_KEY>
SWLMUYACZKCSHZ-UHFFFAOYSA-N

> <FORMULA>
C19H17Cl3N2S

> <MOLECULAR_WEIGHT>
411.776

> <EXACT_MASS>
410.017802365

> <JCHEM_ACCEPTOR_COUNT>
1

> <JCHEM_AVERAGE_POLARIZABILITY>
41.00664949220142

> <JCHEM_BIOAVAILABILITY>
1

> <JCHEM_DONOR_COUNT>
0

> <JCHEM_FORMAL_CHARGE>
0

> <JCHEM_GHOSE_FILTER>
0

> <JCHEM_IUPAC>
1-[4-(4-chlorophenyl)-2-[(2,6-dichlorophenyl)sulfanyl]butyl]-1H-imidazole

> <ALOGPS_LOGP>
6.70

> <JCHEM_LOGP>
6.552484297333333

> <ALOGPS_LOGS>
-5.70

> <JCHEM_MDDR_LIKE_RULE>
1

> <JCHEM_NUMBER_OF_RINGS>
3

> <JCHEM_PHYSIOLOGICAL_CHARGE>
0

> <JCHEM_PKA_STRONGEST_BASIC>
6.7811216992495575

> <JCHEM_POLAR_SURFACE_AREA>
17.82

> <JCHEM_REFRACTIVITY>
108.986

> <JCHEM_ROTATABLE_BOND_COUNT>
7

> <JCHEM_RULE_OF_FIVE>
0

> <ALOGPS_SOLUBILITY>
8.18e-04 g/l

> <JCHEM_TRADITIONAL_IUPAC>
butoconazole

> <JCHEM_VEBER_RULE>
1

$$$$

  Mrv1909 12171918222D          

 65 67  0  0  0  0            999 V2000
    4.2834    2.2687    0.0000 C   0  0  1  0  0  0  0  0  0  0  0  0
    4.2834    1.4420    0.0000 O   0  0  0  0  0  0  0  0  0  0  0  0
    5.7104    1.4420    0.0000 C   0  0  0  0  0  0  0  0  0  0  0  0
    5.7104    2.2687    0.0000 C   0  0  0  0  0  0  0  0  0  0  0  0
    4.9969    2.6862    0.0000 C   0  0  0  0  0  0  0  0  0  0  0  0
    3.5694    2.6779    0.0000 C   0  0  0  0  0  0  0  0  0  0  0  0
    2.8554    2.2645    0.0000 C   0  0  0  0  0  0  0  0  0  0  0  0
    2.1414    2.6737    0.0000 C   0  0  0  0  0  0  0  0  0  0  0  0
    1.4275    2.2603    0.0000 C   0  0  0  0  0  0  0  0  0  0  0  0
    0.7135    2.6696    0.0000 C   0  0  0  0  0  0  0  0  0  0  0  0
   -0.0004    2.2562    0.0000 C   0  0  0  0  0  0  0  0  0  0  0  0
   -0.7144    2.6654    0.0000 C   0  0  0  0  0  0  0  0  0  0  0  0
   -1.4284    2.2520    0.0000 C   0  0  0  0  0  0  0  0  0  0  0  0
   -2.1423    2.6612    0.0000 C   0  0  0  0  0  0  0  0  0  0  0  0
   -2.8563    2.2478    0.0000 C   0  0  0  0  0  0  0  0  0  0  0  0
   -3.5703    2.6570    0.0000 C   0  0  0  0  0  0  0  0  0  0  0  0
   -4.2843    2.2437    0.0000 C   0  0  0  0  0  0  0  0  0  0  0  0
   -4.9982    2.6528    0.0000 O   0  0  0  0  0  0  0  0  0  0  0  0
   -5.7122    2.2395    0.0000 C   0  0  1  0  0  0  0  0  0  0  0  0
   -6.4262    2.6486    0.0000 C   0  0  0  0  0  0  0  0  0  0  0  0
   -5.7104    1.4128    0.0000 C   0  0  1  0  0  0  0  0  0  0  0  0
   -6.4254    0.9978    0.0000 C   0  0  2  0  0  0  0  0  0  0  0  0
   -4.9935    1.0010    0.0000 C   0  0  0  0  0  0  0  0  0  0  0  0
   -7.1423    1.4097    0.0000 O   0  0  0  0  0  0  0  0  0  0  0  0
   -6.4236    0.1711    0.0000 C   0  0  1  0  0  0  0  0  0  0  0  0
   -7.1387   -0.2437    0.0000 C   0  0  0  0  0  0  0  0  0  0  0  0
   -5.7067   -0.2405    0.0000 C   0  0  0  0  0  0  0  0  0  0  0  0
   -4.9940    0.1769    0.0000 C   0  0  0  0  0  0  0  0  0  0  0  0
   -4.2801   -0.2322    0.0000 C   0  0  0  0  0  0  0  0  0  0  0  0
   -3.5661    0.1810    0.0000 C   0  0  0  0  0  0  0  0  0  0  0  0
   -2.8521   -0.2280    0.0000 C   0  0  0  0  0  0  0  0  0  0  0  0
   -2.1381    0.1852    0.0000 C   0  0  0  0  0  0  0  0  0  0  0  0
   -1.4241   -0.2238    0.0000 C   0  0  0  0  0  0  0  0  0  0  0  0
   -0.7102    0.1894    0.0000 C   0  0  0  0  0  0  0  0  0  0  0  0
    0.0037   -0.2197    0.0000 C   0  0  0  0  0  0  0  0  0  0  0  0
    0.7177    0.1936    0.0000 C   0  0  0  0  0  0  0  0  0  0  0  0
    1.4317   -0.2155    0.0000 C   0  0  0  0  0  0  0  0  0  0  0  0
    2.1456    0.1978    0.0000 C   0  0  0  0  0  0  0  0  0  0  0  0
    2.8596   -0.2113    0.0000 C   0  0  0  0  0  0  0  0  0  0  0  0
    3.5736    0.2020    0.0000 C   0  0  0  0  0  0  0  0  0  0  0  0
    4.2876   -0.2072    0.0000 C   0  0  0  0  0  0  0  0  0  0  0  0
    6.4275    2.6800    0.0000 O   0  0  0  0  0  0  0  0  0  0  0  0
    6.4257    1.0276    0.0000 C   0  0  0  0  0  0  0  0  0  0  0  0
    6.4245    0.2009    0.0000 O   0  0  0  0  0  0  0  0  0  0  0  0
    7.1423    1.4399    0.0000 O   0  0  0  0  0  0  0  0  0  0  0  0
    4.2793    3.0955    0.0000 O   0  0  0  0  0  0  0  0  0  0  0  0
    2.8572    1.4378    0.0000 O   0  0  0  0  0  0  0  0  0  0  0  0
    2.1396    3.5004    0.0000 O   0  0  0  0  0  0  0  0  0  0  0  0
    0.0013    1.4295    0.0000 O   0  0  0  0  0  0  0  0  0  0  0  0
   -1.4266    1.4253    0.0000 O   0  0  0  0  0  0  0  0  0  0  0  0
   -2.8545    1.4211    0.0000 O   0  0  0  0  0  0  0  0  0  0  0  0
   -4.2825    1.4170    0.0000 O   0  0  0  0  0  0  0  0  0  0  0  0
    4.2902   -1.0339    0.0000 O   0  0  0  0  0  0  0  0  0  0  0  0
    5.0022    0.2084    0.0000 C   0  0  0  0  0  0  0  0  0  0  0  0
    4.9995    1.0351    0.0000 C   0  0  0  0  0  0  0  0  0  0  0  0
    5.0015   -1.4430    0.0000 C   0  0  2  0  0  0  0  0  0  0  0  0
    5.0008   -2.2646    0.0000 C   0  0  2  0  0  0  0  0  0  0  0  0
    5.7081   -2.6737    0.0000 C   0  0  2  0  0  0  0  0  0  0  0  0
    6.4206   -2.2657    0.0000 C   0  0  1  0  0  0  0  0  0  0  0  0
    6.4213   -1.4441    0.0000 C   0  0  2  0  0  0  0  0  0  0  0  0
    5.7095   -1.0306    0.0000 O   0  0  0  0  0  0  0  0  0  0  0  0
    7.1380   -1.0321    0.0000 C   0  0  0  0  0  0  0  0  0  0  0  0
    7.1357   -2.6807    0.0000 O   0  0  0  0  0  0  0  0  0  0  0  0
    5.7063   -3.5004    0.0000 N   0  0  0  0  0  0  0  0  0  0  0  0
    4.2846   -2.6774    0.0000 O   0  0  0  0  0  0  0  0  0  0  0  0
 31 32  1  0  0  0  0
  6  7  1  0  0  0  0
 32 33  1  0  0  0  0
 15 16  1  0  0  0  0
 33 34  2  0  0  0  0
  1  5  1  0  0  0  0
 34 35  1  0  0  0  0
 16 17  1  0  0  0  0
 35 36  2  0  0  0  0
  7  8  1  0  0  0  0
 36 37  1  0  0  0  0
 17 18  1  0  0  0  0
 37 38  2  0  0  0  0
  2 55  1  0  0  0  0
 38 39  1  0  0  0  0
 18 19  1  0  0  0  0
 39 40  2  0  0  0  0
  8  9  1  0  0  0  0
 40 41  1  0  0  0  0
 19 20  1  6  0  0  0
  4 42  1  0  0  0  0
 55  3  1  0  0  0  0
  3 43  1  0  0  0  0
 19 21  1  0  0  0  0
 43 44  2  0  0  0  0
  9 10  1  0  0  0  0
 43 45  1  0  0  0  0
 21 22  1  0  0  0  0
  1 46  1  1  0  0  0
  3  4  1  0  0  0  0
  7 47  1  0  0  0  0
 21 23  1  6  0  0  0
  8 48  1  0  0  0  0
 10 11  1  0  0  0  0
 11 49  1  0  0  0  0
 22 24  1  1  0  0  0
 13 50  1  0  0  0  0
  4  5  1  0  0  0  0
 15 51  1  0  0  0  0
 22 25  1  0  0  0  0
 17 52  2  0  0  0  0
 11 12  1  0  0  0  0
 41 53  1  0  0  0  0
 25 26  1  6  0  0  0
 41 54  1  0  0  0  0
  1  2  1  0  0  0  0
 54 55  1  0  0  0  0
 25 27  1  0  0  0  0
 56 53  1  1  0  0  0
 56 57  1  0  0  0  0
 12 13  1  0  0  0  0
 27 28  2  0  0  0  0
  1  6  1  0  0  0  0
 28 29  1  0  0  0  0
 13 14  1  0  0  0  0
 56 61  1  0  0  0  0
 57 58  1  0  0  0  0
 58 59  1  0  0  0  0
 59 60  1  0  0  0  0
 60 61  1  0  0  0  0
 29 30  2  0  0  0  0
 60 62  1  6  0  0  0
 59 63  1  1  0  0  0
 30 31  1  0  0  0  0
 58 64  1  6  0  0  0
 14 15  1  0  0  0  0
 57 65  1  6  0  0  0
M  END
> <DATABASE_ID>
DB00646

> <DATABASE_NAME>
drugbank

> <SMILES>
C[C@H]1O[C@H](OC2CC3O[C@@](O)(CC(O)C3C(O)=O)CC(O)C(O)CCC(O)CC(O)CC(O)CC(=O)O[C@@H](C)[C@H](C)[C@H](O)[C@@H](C)\C=C\C=C\CC\C=C\C=C\C=C\C=C\2)[C@@H](O)[C@@H](N)[C@@H]1O

> <INCHI_IDENTIFIER>
InChI=1S/C47H75NO17/c1-27-17-15-13-11-9-7-5-6-8-10-12-14-16-18-34(64-46-44(58)41(48)43(57)30(4)63-46)24-38-40(45(59)60)37(54)26-47(61,65-38)25-36(53)35(52)20-19-31(49)21-32(50)22-33(51)23-39(55)62-29(3)28(2)42(27)56/h5-6,8,10-18,27-38,40-44,46,49-54,56-58,61H,7,9,19-26,48H2,1-4H3,(H,59,60)/b6-5+,10-8+,13-11+,14-12+,17-15+,18-16+/t27-,28-,29-,30+,31?,32?,33?,34?,35?,36?,37?,38?,40?,41-,42+,43+,44-,46+,47+/m0/s1

> <INCHI_KEY>
VQOXZBDYSJBXMA-RKEBNKJGSA-N

> <FORMULA>
C47H75NO17

> <MOLECULAR_WEIGHT>
926.107

> <EXACT_MASS>
925.503499959

> <JCHEM_ACCEPTOR_COUNT>
17

> <JCHEM_ATOM_COUNT>
140

> <JCHEM_AVERAGE_NEUTRAL_MICROSPECIES_CHARGE>
1.0101942831749031

> <JCHEM_AVERAGE_POLARIZABILITY>
99.93085380462084

> <JCHEM_BIOAVAILABILITY>
0

> <JCHEM_DONOR_COUNT>
12

> <JCHEM_FORMAL_CHARGE>
0

> <JCHEM_GHOSE_FILTER>
0

> <JCHEM_IUPAC>
(1S,15S,16R,17R,18S,19E,21E,25E,27E,29E,31E)-33-{[(2S,3S,4S,5S,6R)-4-amino-3,5-dihydroxy-6-methyloxan-2-yl]oxy}-1,3,4,7,9,11,17,37-octahydroxy-15,16,18-trimethyl-13-oxo-14,39-dioxabicyclo[33.3.1]nonatriaconta-19,21,25,27,29,31-hexaene-36-carboxylic acid

> <ALOGPS_LOGP>
-3.13

> <JCHEM_LOGP>
-1.9383262757226232

> <ALOGPS_LOGS>
-4.03

> <JCHEM_MDDR_LIKE_RULE>
0

> <JCHEM_NEUTRAL_CHARGE>
0

> <JCHEM_NUMBER_OF_RINGS>
3

> <JCHEM_PHYSIOLOGICAL_CHARGE>
0

> <JCHEM_PKA>
11.822025287679976

> <JCHEM_PKA_STRONGEST_ACIDIC>
3.6115930896008326

> <JCHEM_PKA_STRONGEST_BASIC>
9.113091044951755

> <JCHEM_POLAR_SURFACE_AREA>
319.60999999999996

> <JCHEM_REFRACTIVITY>
243.5539000000002

> <JCHEM_ROTATABLE_BOND_COUNT>
3

> <JCHEM_RULE_OF_FIVE>
0

> <ALOGPS_SOLUBILITY>
8.60e-02 g/l

> <JCHEM_TRADITIONAL_IUPAC>
nystatin

> <JCHEM_VEBER_RULE>
0

> <DRUGBANK_ID>
DB00646

> <SECONDARY_ACCESSION_NUMBERS>
APRD01146

> <DRUG_GROUPS>
approved; vet_approved

> <GENERIC_NAME>
Nystatin

> <SYNONYMS>
Nistatina; NYS; Nystatin; Nystatine; Nystatinum

> <PRODUCTS>
Candistatin Topical Powder - 100000 Unit/g; Dom-nystatin Suspension; FIRST BXN Mouthwash; FIRST Dukes Mouthwash Compounding; FIRST Marys Mouthwash Compounding; Flagystatin; Ftp-nystatin; Jamp-nystatin Oral Suspension USP; Kenacomb Cream; Kenacomb Mild Cream; Kenacomb Mild Ointment; Kenacomb Ointment; Kenacomb Ont; Lidecomb Cream; Mecomb Crm 0.1%; Mestatin; Mycolog-II; Mycostatin; Mycostatin Crm 100000unit/gm; Mycostatin Ont 100000iu/gm; Mycostatin Oral Suspension 100000iu; Mycostatin Oral Tab 500000iu; Mycostatin Topical Pwr 100,000units/gm; Mycostatin Vaginal Crm 25000unit; Nadostine Crm 100000iu/gm; Nadostine Ont 100000iu/gm; Nadostine Sus 100000iu/ml; Nadostine Tab 100000unit; Nadostine Tab 500000unit; Nilstat 25000units/g; Nilstat Oral Dps 100000iu/ml; Nilstat Orl Tab 500000unit; Nilstat Sucrose-free; Nilstat Top Crm 100000unit/gm; Nilstat Top Ont 100000unit/gm; Nilstat Vag Crm 100000unit/gm; Nilstat Vag Tab 100000unit; Nyaderm Crm 100000unit/gm; Nyaderm Ont 100000unit/gm; Nyaderm Oral Sus 100000unit/ml USP; Nyaderm Vag Crm 25000unit/gm; Nyamyc; Nyata; Nyata Nystatin Powder; Nystatin; Nystatin Cream; Nystatin Oral Suspension; Nystatin Topical Powder; Nystatin and Triamcinolone; Nystatin and Triamcinolone Acetonide; Nystop; PHL-nystatin Suspension 100000 Unit/ml; PMS-nystatin Suspension 100000 Unit/ml; Pedi-Dri; Pediaderm AF; Ratio-nystatin; Teva-nystatin; Teva-triacomb; Theraderm Cream; Viaderm Kc Crm; Viaderm Kc Ont

> <INTERNATIONAL_BRANDS>
Adiclair; Afunginal; Biofanal; Candacide; Candermil; Candex; Candidias; Candistat; Candistin; Canstat; Cazetin; Diaper NZ; Dipni; Enystin; Fukangning; Fungatin; Fungicidin Leciva; Fungistin; Fungostatin; Funistatin; Gynostatin; Kandistatin; Kenalon; Lederlind; Ledernyst; Lystin; Nilstat; Nyaderm; Nystan

> <SALTS>
Nystatin dihydrate

$$$$
 
  Mrv0541 02231214552D          
 
 66 68  0  0  1  0            999 V2000
   17.5303   -9.2087    0.0000 C   0  0  1  0  0  0  0  0  0  0  0  0
   18.2484   -8.7918    0.0000 C   0  0  1  0  0  0  0  0  0  0  0  0
   16.8096   -8.7952    0.0000 O   0  0  0  0  0  0  0  0  0  0  0  0
   17.5303  -10.0323    0.0000 C   0  0  0  0  0  0  0  0  0  0  0  0
   18.2484   -7.9682    0.0000 C   0  0  2  0  0  0  0  0  0  0  0  0
   18.9655   -9.2053    0.0000 C   0  0  0  0  0  0  0  0  0  0  0  0
   16.8096   -7.9682    0.0000 C   0  0  1  0  0  0  0  0  0  0  0  0
   16.8165  -10.4458    0.0000 C   0  0  1  0  0  0  0  0  0  0  0  0
   17.5303   -7.5547    0.0000 C   0  0  0  0  0  0  0  0  0  0  0  0
   18.9620   -7.5513    0.0000 O   0  0  0  0  0  0  0  0  0  0  0  0
   18.9655  -10.0323    0.0000 O   0  0  0  0  0  0  0  0  0  0  0  0
   19.6793   -8.7918    0.0000 O   0  0  0  0  0  0  0  0  0  0  0  0
   16.0992   -7.5582    0.0000 C   0  0  0  0  0  0  0  0  0  0  0  0
   16.8061   -7.1411    0.0000 O   0  0  0  0  0  0  0  0  0  0  0  0
   16.8199  -11.2728    0.0000 O   0  0  0  0  0  0  0  0  0  0  0  0
   16.1061  -10.0392    0.0000 C   0  0  0  0  0  0  0  0  0  0  0  0
   15.3853   -7.9716    0.0000 C   0  0  2  0  0  0  0  0  0  0  0  0
   16.1061  -11.6898    0.0000 C   0  0  1  0  0  0  0  0  0  0  0  0
   15.3922  -10.4493    0.0000 C   0  0  0  0  0  0  0  0  0  0  0  0
   14.6675   -7.5616    0.0000 C   0  0  0  0  0  0  0  0  0  0  0  0
   15.3853   -8.7987    0.0000 O   0  0  0  0  0  0  0  0  0  0  0  0
   16.1096  -12.5210    0.0000 C   0  0  2  0  0  0  0  0  0  0  0  0
   15.3922  -11.2764    0.0000 O   0  0  0  0  0  0  0  0  0  0  0  0
   14.6784  -10.0468    0.0000 C   0  0  0  0  0  0  0  0  0  0  0  0
   13.9537   -7.9751    0.0000 C   0  0  2  0  0  0  0  0  0  0  0  0
   15.3958  -12.9346    0.0000 C   0  0  2  0  0  0  0  0  0  0  0  0
   16.8276  -12.9269    0.0000 O   0  0  0  0  0  0  0  0  0  0  0  0
   14.6784  -11.6898    0.0000 C   0  0  1  0  0  0  0  0  0  0  0  0
   13.9606  -10.4603    0.0000 C   0  0  0  0  0  0  0  0  0  0  0  0
   13.2399   -7.5651    0.0000 C   0  0  1  0  0  0  0  0  0  0  0  0
   13.9571   -8.8021    0.0000 O   0  0  0  0  0  0  0  0  0  0  0  0
   14.6784  -12.5210    0.0000 C   0  0  1  0  0  0  0  0  0  0  0  0
   15.3958  -13.7615    0.0000 N   0  0  0  0  0  0  0  0  0  0  0  0
   13.9571  -11.2839    0.0000 C   0  0  0  0  0  0  0  0  0  0  0  0
   13.2467  -10.0502    0.0000 C   0  0  0  0  0  0  0  0  0  0  0  0
   12.5295   -7.9827    0.0000 C   0  0  0  0  0  0  0  0  0  0  0  0
   13.2399   -6.7379    0.0000 O   0  0  0  0  0  0  0  0  0  0  0  0
   13.9606  -12.9380    0.0000 O   0  0  0  0  0  0  0  0  0  0  0  0
   12.5364  -10.4638    0.0000 C   0  0  0  0  0  0  0  0  0  0  0  0
   11.8115   -7.5726    0.0000 C   0  0  0  0  0  0  0  0  0  0  0  0
   11.8226  -10.0537    0.0000 C   0  0  0  0  0  0  0  0  0  0  0  0
   11.0976   -7.9862    0.0000 C   0  0  2  0  0  0  0  0  0  0  0  0
   11.1046  -10.4672    0.0000 C   0  0  0  0  0  0  0  0  0  0  0  0
   10.3838   -7.5761    0.0000 C   0  0  0  0  0  0  0  0  0  0  0  0
   11.0976   -8.8131    0.0000 O   0  0  0  0  0  0  0  0  0  0  0  0
   10.3907  -10.0571    0.0000 C   0  0  0  0  0  0  0  0  0  0  0  0
    9.6700   -7.9896    0.0000 C   0  0  2  0  0  0  0  0  0  0  0  0
    9.6769  -10.4707    0.0000 C   0  0  0  0  0  0  0  0  0  0  0  0
    8.9555   -7.5795    0.0000 C   0  0  0  0  0  0  0  0  0  0  0  0
    9.6735   -8.8166    0.0000 O   0  0  0  0  0  0  0  0  0  0  0  0
    8.9666  -10.0606    0.0000 C   0  0  0  0  0  0  0  0  0  0  0  0
    8.2417   -7.9931    0.0000 C   0  0  0  0  0  0  0  0  0  0  0  0
    8.2451  -10.4741    0.0000 C   0  0  0  0  0  0  0  0  0  0  0  0
    7.5279   -7.5830    0.0000 O   0  0  0  0  0  0  0  0  0  0  0  0
    8.2417   -8.8200    0.0000 O   0  0  0  0  0  0  0  0  0  0  0  0
    7.5314  -10.0640    0.0000 C   0  0  0  0  0  0  0  0  0  0  0  0
    6.8141   -7.9965    0.0000 C   0  0  2  0  0  0  0  0  0  0  0  0
    6.8176  -10.4776    0.0000 C   0  0  0  0  0  0  0  0  0  0  0  0
    6.8141   -8.8235    0.0000 C   0  0  1  0  0  0  0  0  0  0  0  0
    6.0962   -7.5830    0.0000 C   0  0  0  0  0  0  0  0  0  0  0  0
    6.0962  -10.0640    0.0000 C   0  0  1  0  0  0  0  0  0  0  0  0
    6.0962   -9.2371    0.0000 C   0  0  1  0  0  0  0  0  0  0  0  0
    7.5314   -9.2371    0.0000 C   0  0  0  0  0  0  0  0  0  0  0  0
    5.3872  -10.4776    0.0000 C   0  0  0  0  0  0  0  0  0  0  0  0
    5.3872   -8.8235    0.0000 O   0  0  0  0  0  0  0  0  0  0  0  0
   18.2392   -9.6196    0.0000 H   0  0  0  0  0  0  0  0  0  0  0  0
  1  2  1  0  0  0  0
  1  3  1  0  0  0  0
  1  4  1  0  0  0  0
  2  5  1  0  0  0  0
  2  6  1  1  0  0  0
  3  7  1  0  0  0  0
  4  8  1  0  0  0  0
  5  9  1  0  0  0  0
  5 10  1  6  0  0  0
  6 11  1  0  0  0  0
  6 12  2  0  0  0  0
  7 13  1  0  0  0  0
  7 14  1  1  0  0  0
  8 15  1  1  0  0  0
  8 16  1  0  0  0  0
 13 17  1  0  0  0  0
 15 18  1  0  0  0  0
 16 19  2  0  0  0  0
 17 20  1  0  0  0  0
 17 21  1  1  0  0  0
 18 22  1  0  0  0  0
 18 23  1  1  0  0  0
 19 24  1  0  0  0  0
 20 25  1  0  0  0  0
 22 26  1  0  0  0  0
 22 27  1  1  0  0  0
 23 28  1  0  0  0  0
 24 29  2  0  0  0  0
 25 30  1  0  0  0  0
 25 31  1  1  0  0  0
 26 32  1  0  0  0  0
 26 33  1  1  0  0  0
 28 34  1  1  0  0  0
 29 35  1  0  0  0  0
 30 36  1  0  0  0  0
 30 37  1  1  0  0  0
 32 38  1  6  0  0  0
 35 39  2  0  0  0  0
 36 40  1  0  0  0  0
 39 41  1  0  0  0  0
 40 42  1  0  0  0  0
 41 43  2  0  0  0  0
 42 44  1  0  0  0  0
 42 45  1  1  0  0  0
 43 46  1  0  0  0  0
 44 47  1  0  0  0  0
 46 48  2  0  0  0  0
 47 49  1  0  0  0  0
 47 50  1  1  0  0  0
 48 51  1  0  0  0  0
 49 52  1  0  0  0  0
 51 53  2  0  0  0  0
 52 54  1  0  0  0  0
 52 55  2  0  0  0  0
 53 56  1  0  0  0  0
 54 57  1  0  0  0  0
 56 58  2  0  0  0  0
 57 59  1  0  0  0  0
 57 60  1  6  0  0  0
 58 61  1  0  0  0  0
 59 62  1  0  0  0  0
 59 63  1  6  0  0  0
 61 64  1  6  0  0  0
 62 65  1  1  0  0  0
  7  9  1  0  0  0  0
 28 32  1  0  0  0  0
 61 62  1  0  0  0  0
  1 66  1  1  0  0  0
M  END
> <DATABASE_ID>
DB00681

> <DATABASE_NAME>
drugbank

> <SMILES>
[H][C@]12C[C@@H](O[C@@H]3O[C@H](C)[C@@H](O)[C@H](N)[C@@H]3O)\C=C\C=C\C=C\C=C\C=C\C=C\C=C\[C@H](C)[C@@H](O)[C@@H](C)[C@H](C)OC(=O)C[C@H](O)C[C@H](O)CC[C@@H](O)[C@H](O)C[C@H](O)C[C@](O)(C[C@H](O)[C@H]1C(O)=O)O2

> <INCHI_IDENTIFIER>
InChI=1S/C47H73NO17/c1-27-17-15-13-11-9-7-5-6-8-10-12-14-16-18-34(64-46-44(58)41(48)43(57)30(4)63-46)24-38-40(45(59)60)37(54)26-47(61,65-38)25-33(51)22-36(53)35(52)20-19-31(49)21-32(50)23-39(55)62-29(3)28(2)42(27)56/h5-18,27-38,40-44,46,49-54,56-58,61H,19-26,48H2,1-4H3,(H,59,60)/b6-5+,9-7+,10-8+,13-11+,14-12+,17-15+,18-16+/t27-,28-,29-,30+,31+,32+,33-,34-,35+,36+,37-,38-,40+,41-,42+,43+,44-,46-,47+/m0/s1

> <INCHI_KEY>
APKFDSVGJQXUKY-INPOYWNPSA-N

> <FORMULA>
C47H73NO17

> <MOLECULAR_WEIGHT>
924.079

> <EXACT_MASS>
923.487849915

> <JCHEM_ACCEPTOR_COUNT>
17

> <JCHEM_AVERAGE_POLARIZABILITY>
99.44733295400422

> <JCHEM_BIOAVAILABILITY>
0

> <JCHEM_DONOR_COUNT>
12

> <JCHEM_FORMAL_CHARGE>
0

> <JCHEM_GHOSE_FILTER>
0

> <JCHEM_IUPAC>
(1R,3S,5R,6R,9R,11R,15S,16R,17R,18S,19E,21E,23E,25E,27E,29E,31E,33R,35S,36R,37S)-33-{[(2R,3S,4S,5S,6R)-4-amino-3,5-dihydroxy-6-methyloxan-2-yl]oxy}-1,3,5,6,9,11,17,37-octahydroxy-15,16,18-trimethyl-13-oxo-14,39-dioxabicyclo[33.3.1]nonatriaconta-19,21,23,25,27,29,31-heptaene-36-carboxylic acid

> <ALOGPS_LOGP>
-0.66

> <JCHEM_LOGP>
-2.3001616917873178

> <ALOGPS_LOGS>
-4.05

> <JCHEM_MDDR_LIKE_RULE>
0

> <JCHEM_NUMBER_OF_RINGS>
3

> <JCHEM_PHYSIOLOGICAL_CHARGE>
0

> <JCHEM_PKA>
11.826572360496307

> <JCHEM_PKA_STRONGEST_ACIDIC>
3.579739281930252

> <JCHEM_PKA_STRONGEST_BASIC>
9.113099822252716

> <JCHEM_POLAR_SURFACE_AREA>
319.61

> <JCHEM_REFRACTIVITY>
244.6705000000001

> <JCHEM_ROTATABLE_BOND_COUNT>
3

> <JCHEM_RULE_OF_FIVE>
0

> <ALOGPS_SOLUBILITY>
8.19e-02 g/l

> <JCHEM_TRADITIONAL_IUPAC>
amphotericin B

> <JCHEM_VEBER_RULE>
0

> <DRUGBANK_ID>
DB00681

> <SECONDARY_ACCESSION_NUMBERS>
APRD00797

> <DRUG_GROUPS>
approved; investigational

> <GENERIC_NAME>
Amphotericin B

> <SYNONYMS>
Amfotericina B; AMPH-b; Amphotericin B; Amphotéricine B; Amphotericinum B; Liposomal amphotericin B

> <PRODUCTS>
Abelcet; AmBisome; Amphotec; Amphotec 100 mg; Amphotec 50 mg; Amphotericin B; Amphotericin B for Injection, USP; Fungizone

> <INTERNATIONAL_BRANDS>
Abelect; Ampho-Moronal; Amphocil; Amphocin; Amphotericin; Fungilin; Fungisome; Fungizone Intravenous; Halizon

> <SALTS>
Amphotericin B Cholesteryl Sulfate Complex; Corifungin

$$$$
73342
  -OEChem-10051719223D

 43 45  0     1  0  0  0  0  0999 V2000
    0.5433    2.0240   -0.9393 N   0  0  1  0  0  0  0  0  0  0  0  0
    0.7237    1.3523    0.3464 C   0  0  0  0  0  0  0  0  0  0  0  0
    2.1049    0.7959    0.5043 C   0  0  0  0  0  0  0  0  0  0  0  0
    2.4339   -0.5073    0.0974 C   0  0  0  0  0  0  0  0  0  0  0  0
    3.7580   -0.9744    0.2748 C   0  0  0  0  0  0  0  0  0  0  0  0
   -0.8324    2.5008   -1.0792 C   0  0  0  0  0  0  0  0  0  0  0  0
    3.0677    1.6269    1.0780 C   0  0  0  0  0  0  0  0  0  0  0  0
    1.4847    3.1356   -1.0726 C   0  0  0  0  0  0  0  0  0  0  0  0
    1.4776   -1.3574   -0.4817 C   0  0  0  0  0  0  0  0  0  0  0  0
    4.7142   -0.1243    0.8539 C   0  0  0  0  0  0  0  0  0  0  0  0
    4.3699    1.1676    1.2524 C   0  0  0  0  0  0  0  0  0  0  0  0
    4.0869   -2.2776   -0.1322 C   0  0  0  0  0  0  0  0  0  0  0  0
   -1.8197    1.3793   -0.9464 C   0  0  0  0  0  0  0  0  0  0  0  0
    1.8219   -2.6494   -0.8803 C   0  0  0  0  0  0  0  0  0  0  0  0
    3.1240   -3.1086   -0.7058 C   0  0  0  0  0  0  0  0  0  0  0  0
   -2.7754    1.3477   -0.0041 C   0  0  0  0  0  0  0  0  0  0  0  0
   -3.7761    0.2793    0.1560 C   0  0  0  0  0  0  0  0  0  0  0  0
   -3.5372   -0.9651   -0.4056 C   0  0  0  0  0  0  0  0  0  0  0  0
   -4.9386    0.5378    0.8652 C   0  0  0  0  0  0  0  0  0  0  0  0
   -4.4851   -1.9771   -0.2543 C   0  0  0  0  0  0  0  0  0  0  0  0
   -5.8865   -0.4744    1.0164 C   0  0  0  0  0  0  0  0  0  0  0  0
   -5.6597   -1.7317    0.4567 C   0  0  0  0  0  0  0  0  0  0  0  0
   -0.0014    0.5542    0.5313 H   0  0  0  0  0  0  0  0  0  0  0  0
    0.5309    2.0588    1.1690 H   0  0  0  0  0  0  0  0  0  0  0  0
   -0.9692    2.9384   -2.0761 H   0  0  0  0  0  0  0  0  0  0  0  0
   -1.0459    3.2957   -0.3518 H   0  0  0  0  0  0  0  0  0  0  0  0
    2.8211    2.6310    1.4128 H   0  0  0  0  0  0  0  0  0  0  0  0
    1.4430    3.8329   -0.2280 H   0  0  0  0  0  0  0  0  0  0  0  0
    1.2558    3.7124   -1.9776 H   0  0  0  0  0  0  0  0  0  0  0  0
    2.5125    2.7917   -1.2224 H   0  0  0  0  0  0  0  0  0  0  0  0
    0.4512   -1.0539   -0.6617 H   0  0  0  0  0  0  0  0  0  0  0  0
    5.7379   -0.4625    1.0006 H   0  0  0  0  0  0  0  0  0  0  0  0
    5.1181    1.8135    1.7026 H   0  0  0  0  0  0  0  0  0  0  0  0
    5.0986   -2.6575   -0.0058 H   0  0  0  0  0  0  0  0  0  0  0  0
   -1.7354    0.5972   -1.6957 H   0  0  0  0  0  0  0  0  0  0  0  0
    1.0742   -3.2958   -1.3308 H   0  0  0  0  0  0  0  0  0  0  0  0
    3.3918   -4.1140   -1.0172 H   0  0  0  0  0  0  0  0  0  0  0  0
   -2.8444    2.1687    0.7062 H   0  0  0  0  0  0  0  0  0  0  0  0
   -2.6280   -1.2075   -0.9466 H   0  0  0  0  0  0  0  0  0  0  0  0
   -5.1304    1.5124    1.3061 H   0  0  0  0  0  0  0  0  0  0  0  0
   -4.3067   -2.9580   -0.6853 H   0  0  0  0  0  0  0  0  0  0  0  0
   -6.8013   -0.2836    1.5701 H   0  0  0  0  0  0  0  0  0  0  0  0
   -6.3972   -2.5201    0.5756 H   0  0  0  0  0  0  0  0  0  0  0  0
  1  2  1  0  0  0  0
  1  6  1  0  0  0  0
  1  8  1  0  0  0  0
  2  3  1  0  0  0  0
  2 23  1  0  0  0  0
  2 24  1  0  0  0  0
  3  4  1  0  0  0  0
  3  7  2  0  0  0  0
  4  5  1  0  0  0  0
  4  9  2  0  0  0  0
  5 10  1  0  0  0  0
  5 12  2  0  0  0  0
  6 13  1  0  0  0  0
  6 25  1  0  0  0  0
  6 26  1  0  0  0  0
  7 11  1  0  0  0  0
  7 27  1  0  0  0  0
  8 28  1  0  0  0  0
  8 29  1  0  0  0  0
  8 30  1  0  0  0  0
  9 14  1  0  0  0  0
  9 31  1  0  0  0  0
 10 11  2  0  0  0  0
 10 32  1  0  0  0  0
 11 33  1  0  0  0  0
 12 15  1  0  0  0  0
 12 34  1  0  0  0  0
 13 16  2  0  0  0  0
 13 35  1  0  0  0  0
 14 15  2  0  0  0  0
 14 36  1  0  0  0  0
 15 37  1  0  0  0  0
 16 17  1  0  0  0  0
 16 38  1  0  0  0  0
 17 18  2  0  0  0  0
 17 19  1  0  0  0  0
 18 20  1  0  0  0  0
 18 39  1  0  0  0  0
 19 21  2  0  0  0  0
 19 40  1  0  0  0  0
 20 22  2  0  0  0  0
 20 41  1  0  0  0  0
 21 22  1  0  0  0  0
 21 42  1  0  0  0  0
 22 43  1  0  0  0  0
M  END
> <DATABASE_ID>
DB00735

> <DATABASE_NAME>
drugbank

> <ORIGINAL_SOURCE>
PUBCHEM

> <ORIGINAL_SOURCE_URL>
https://pubchem.ncbi.nlm.nih.gov/rest/pug/compound/inchikey/OZGNYLLQHRPOBR-UHFFFAOYSA-N/SDF?record_type=3d

> <SMILES>
CN(CC=CC1=CC=CC=C1)CC1=CC=CC2=CC=CC=C12

> <INCHI_IDENTIFIER>
InChI=1S/C21H21N/c1-22(16-8-11-18-9-3-2-4-10-18)17-20-14-7-13-19-12-5-6-15-21(19)20/h2-15H,16-17H2,1H3

> <INCHI_KEY>
OZGNYLLQHRPOBR-UHFFFAOYSA-N

> <FORMULA>
C21H21N

> <MOLECULAR_WEIGHT>
287.3981

> <EXACT_MASS>
287.167399677

> <JCHEM_ACCEPTOR_COUNT>
1

> <JCHEM_AVERAGE_POLARIZABILITY>
34.04545714727199

> <JCHEM_BIOAVAILABILITY>
1

> <JCHEM_DONOR_COUNT>
0

> <JCHEM_FORMAL_CHARGE>
0

> <JCHEM_GHOSE_FILTER>
1

> <JCHEM_IUPAC>
methyl(naphthalen-1-ylmethyl)(3-phenylprop-2-en-1-yl)amine

> <ALOGPS_LOGP>
4.96

> <JCHEM_LOGP>
5.238508130333333

> <ALOGPS_LOGS>
-6.10

> <JCHEM_MDDR_LIKE_RULE>
0

> <JCHEM_NUMBER_OF_RINGS>
3

> <JCHEM_PHYSIOLOGICAL_CHARGE>
1

> <JCHEM_PKA_STRONGEST_BASIC>
9.076115733353172

> <JCHEM_POLAR_SURFACE_AREA>
3.24

> <JCHEM_REFRACTIVITY>
95.98210000000003

> <JCHEM_ROTATABLE_BOND_COUNT>
5

> <JCHEM_RULE_OF_FIVE>
0

> <ALOGPS_SOLUBILITY>
2.29e-04 g/l

> <JCHEM_TRADITIONAL_IUPAC>
naftin

> <JCHEM_VEBER_RULE>
1

$$$$
4735
  -OEChem-10051719223D

 49 50  0     0  0  0  0  0  0999 V2000
    3.6669    1.6417   -0.1035 O   0  0  0  0  0  0  0  0  0  0  0  0
   -3.6640    1.6313   -0.1582 O   0  0  0  0  0  0  0  0  0  0  0  0
    9.1993   -1.3605    1.3072 N   0  0  0  0  0  0  0  0  0  0  0  0
   -8.5761   -2.5251   -0.6091 N   0  0  0  0  0  0  0  0  0  0  0  0
    8.5360   -2.4390   -0.6569 N   0  0  0  0  0  0  0  0  0  0  0  0
   -9.1446   -1.2890    1.2908 N   0  0  0  0  0  0  0  0  0  0  0  0
   -0.0035    1.0239   -0.7507 C   0  0  0  0  0  0  0  0  0  0  0  0
    1.2554    1.6400   -0.1334 C   0  0  0  0  0  0  0  0  0  0  0  0
   -1.2696    1.6515   -0.1705 C   0  0  0  0  0  0  0  0  0  0  0  0
    2.5323    1.0519   -0.7215 C   0  0  0  0  0  0  0  0  0  0  0  0
   -2.5268    1.0158   -0.7470 C   0  0  0  0  0  0  0  0  0  0  0  0
    4.7951    0.8679   -0.0131 C   0  0  0  0  0  0  0  0  0  0  0  0
   -4.7936    0.8631   -0.0444 C   0  0  0  0  0  0  0  0  0  0  0  0
    5.0539   -0.1033   -0.9803 C   0  0  0  0  0  0  0  0  0  0  0  0
   -5.6903    1.0920    0.9993 C   0  0  0  0  0  0  0  0  0  0  0  0
    5.6852    1.0535    1.0448 C   0  0  0  0  0  0  0  0  0  0  0  0
   -5.0476   -0.1459   -0.9736 C   0  0  0  0  0  0  0  0  0  0  0  0
    7.0927   -0.7038    0.1682 C   0  0  0  0  0  0  0  0  0  0  0  0
   -7.0948   -0.6972    0.1848 C   0  0  0  0  0  0  0  0  0  0  0  0
    6.2027   -0.8891   -0.8896 C   0  0  0  0  0  0  0  0  0  0  0  0
   -6.8409    0.3118    1.1139 C   0  0  0  0  0  0  0  0  0  0  0  0
    6.8339    0.2675    1.1355 C   0  0  0  0  0  0  0  0  0  0  0  0
   -6.1981   -0.9260   -0.8589 C   0  0  0  0  0  0  0  0  0  0  0  0
    8.2910   -1.5225    0.2627 C   0  0  0  0  0  0  0  0  0  0  0  0
   -8.2947   -1.5104    0.3037 C   0  0  0  0  0  0  0  0  0  0  0  0
    0.0122    1.1670   -1.8380 H   0  0  0  0  0  0  0  0  0  0  0  0
   -0.0081   -0.0571   -0.5660 H   0  0  0  0  0  0  0  0  0  0  0  0
    1.2575    2.7267   -0.2844 H   0  0  0  0  0  0  0  0  0  0  0  0
    1.2545    1.4893    0.9534 H   0  0  0  0  0  0  0  0  0  0  0  0
   -1.2787    1.5455    0.9216 H   0  0  0  0  0  0  0  0  0  0  0  0
   -1.2835    2.7308   -0.3671 H   0  0  0  0  0  0  0  0  0  0  0  0
    2.5009   -0.0329   -0.5548 H   0  0  0  0  0  0  0  0  0  0  0  0
    2.5706    1.2492   -1.7992 H   0  0  0  0  0  0  0  0  0  0  0  0
   -2.4895   -0.0592   -0.5276 H   0  0  0  0  0  0  0  0  0  0  0  0
   -2.5593    1.1646   -1.8325 H   0  0  0  0  0  0  0  0  0  0  0  0
    4.4019   -0.2599   -1.8345 H   0  0  0  0  0  0  0  0  0  0  0  0
   -5.4973    1.8769    1.7254 H   0  0  0  0  0  0  0  0  0  0  0  0
    5.4881    1.8090    1.8005 H   0  0  0  0  0  0  0  0  0  0  0  0
   -4.3897   -0.3374   -1.8162 H   0  0  0  0  0  0  0  0  0  0  0  0
    6.3776   -1.6322   -1.6629 H   0  0  0  0  0  0  0  0  0  0  0  0
   -7.5181    0.5165    1.9385 H   0  0  0  0  0  0  0  0  0  0  0  0
    7.4917    0.4532    1.9773 H   0  0  0  0  0  0  0  0  0  0  0  0
   -6.3506   -1.6922   -1.6111 H   0  0  0  0  0  0  0  0  0  0  0  0
   10.0307   -1.9406    1.3550 H   0  0  0  0  0  0  0  0  0  0  0  0
    9.0890   -0.6835    2.0517 H   0  0  0  0  0  0  0  0  0  0  0  0
   -9.4197   -3.0806   -0.5104 H   0  0  0  0  0  0  0  0  0  0  0  0
   -7.9803   -2.7613   -1.3927 H   0  0  0  0  0  0  0  0  0  0  0  0
    9.4185   -2.9056   -0.4196 H   0  0  0  0  0  0  0  0  0  0  0  0
   -9.9196   -1.9558    1.2041 H   0  0  0  0  0  0  0  0  0  0  0  0
  1 10  1  0  0  0  0
  1 12  1  0  0  0  0
  2 11  1  0  0  0  0
  2 13  1  0  0  0  0
  3 24  1  0  0  0  0
  3 44  1  0  0  0  0
  3 45  1  0  0  0  0
  4 25  1  0  0  0  0
  4 46  1  0  0  0  0
  4 47  1  0  0  0  0
  5 24  2  0  0  0  0
  5 48  1  0  0  0  0
  6 25  2  0  0  0  0
  6 49  1  0  0  0  0
  7  8  1  0  0  0  0
  7  9  1  0  0  0  0
  7 26  1  0  0  0  0
  7 27  1  0  0  0  0
  8 10  1  0  0  0  0
  8 28  1  0  0  0  0
  8 29  1  0  0  0  0
  9 11  1  0  0  0  0
  9 30  1  0  0  0  0
  9 31  1  0  0  0  0
 10 32  1  0  0  0  0
 10 33  1  0  0  0  0
 11 34  1  0  0  0  0
 11 35  1  0  0  0  0
 12 14  2  0  0  0  0
 12 16  1  0  0  0  0
 13 15  2  0  0  0  0
 13 17  1  0  0  0  0
 14 20  1  0  0  0  0
 14 36  1  0  0  0  0
 15 21  1  0  0  0  0
 15 37  1  0  0  0  0
 16 22  2  0  0  0  0
 16 38  1  0  0  0  0
 17 23  2  0  0  0  0
 17 39  1  0  0  0  0
 18 20  2  0  0  0  0
 18 22  1  0  0  0  0
 18 24  1  0  0  0  0
 19 21  2  0  0  0  0
 19 23  1  0  0  0  0
 19 25  1  0  0  0  0
 20 40  1  0  0  0  0
 21 41  1  0  0  0  0
 22 42  1  0  0  0  0
 23 43  1  0  0  0  0
M  END
> <DATABASE_ID>
DB00738

> <DATABASE_NAME>
drugbank

> <ORIGINAL_SOURCE>
PUBCHEM

> <ORIGINAL_SOURCE_URL>
https://pubchem.ncbi.nlm.nih.gov/rest/pug/compound/inchikey/XDRYMKDFEDOLFX-UHFFFAOYSA-N/SDF?record_type=3d

> <SMILES>
NC(=N)C1=CC=C(OCCCCCOC2=CC=C(C=C2)C(N)=N)C=C1

> <INCHI_IDENTIFIER>
InChI=1S/C19H24N4O2/c20-18(21)14-4-8-16(9-5-14)24-12-2-1-3-13-25-17-10-6-15(7-11-17)19(22)23/h4-11H,1-3,12-13H2,(H3,20,21)(H3,22,23)

> <INCHI_KEY>
XDRYMKDFEDOLFX-UHFFFAOYSA-N

> <FORMULA>
C19H24N4O2

> <MOLECULAR_WEIGHT>
340.4195

> <EXACT_MASS>
340.189926032

> <JCHEM_ACCEPTOR_COUNT>
6

> <JCHEM_AVERAGE_POLARIZABILITY>
38.85340776240597

> <JCHEM_BIOAVAILABILITY>
1

> <JCHEM_DONOR_COUNT>
4

> <JCHEM_FORMAL_CHARGE>
0

> <JCHEM_GHOSE_FILTER>
1

> <JCHEM_IUPAC>
4-{[5-(4-carbamimidoylphenoxy)pentyl]oxy}benzene-1-carboximidamide

> <ALOGPS_LOGP>
1.32

> <JCHEM_LOGP>
2.322452181

> <ALOGPS_LOGS>
-4.16

> <JCHEM_MDDR_LIKE_RULE>
0

> <JCHEM_NUMBER_OF_RINGS>
2

> <JCHEM_PHYSIOLOGICAL_CHARGE>
2

> <JCHEM_PKA_STRONGEST_BASIC>
12.127523837671355

> <JCHEM_POLAR_SURFACE_AREA>
118.19999999999999

> <JCHEM_REFRACTIVITY>
120.52940000000001

> <JCHEM_ROTATABLE_BOND_COUNT>
10

> <JCHEM_RULE_OF_FIVE>
1

> <ALOGPS_SOLUBILITY>
2.36e-02 g/l

> <JCHEM_TRADITIONAL_IUPAC>
pentamidine

> <JCHEM_VEBER_RULE>
0

$$$$
3561
  -OEChem-10051719233D

 18 18  0     0  0  0  0  0  0999 V2000
   -6.4046   -0.2263    0.2352 I   0  0  0  0  0  0  0  0  0  0  0  0
   -0.3371   -2.6518   -0.2149 Cl  0  0  0  0  0  0  0  0  0  0  0  0
    3.4260    2.3244    0.0127 Cl  0  0  0  0  0  0  0  0  0  0  0  0
    4.5745   -0.6524    0.5584 Cl  0  0  0  0  0  0  0  0  0  0  0  0
   -1.1099    0.2167   -0.6750 O   0  0  0  0  0  0  0  0  0  0  0  0
    0.2063    0.0077   -0.3879 C   0  0  0  0  0  0  0  0  0  0  0  0
    0.7008   -1.2752   -0.1526 C   0  0  0  0  0  0  0  0  0  0  0  0
    1.0634    1.1067   -0.3323 C   0  0  0  0  0  0  0  0  0  0  0  0
    2.4152    0.9227   -0.0416 C   0  0  0  0  0  0  0  0  0  0  0  0
    2.0526   -1.4590    0.1383 C   0  0  0  0  0  0  0  0  0  0  0  0
    2.9098   -0.3601    0.1938 C   0  0  0  0  0  0  0  0  0  0  0  0
   -1.8419    1.0544    0.2168 C   0  0  0  0  0  0  0  0  0  0  0  0
   -3.2495    0.6580    0.2219 C   0  0  0  0  0  0  0  0  0  0  0  0
   -4.4055    0.3343    0.2271 C   0  0  0  0  0  0  0  0  0  0  0  0
    0.6789    2.1055   -0.5257 H   0  0  0  0  0  0  0  0  0  0  0  0
    2.4365   -2.4605    0.3217 H   0  0  0  0  0  0  0  0  0  0  0  0
   -1.4415    0.9827    1.2360 H   0  0  0  0  0  0  0  0  0  0  0  0
   -1.7483    2.0931   -0.1189 H   0  0  0  0  0  0  0  0  0  0  0  0
  1 14  1  0  0  0  0
  2  7  1  0  0  0  0
  3  9  1  0  0  0  0
  4 11  1  0  0  0  0
  5  6  1  0  0  0  0
  5 12  1  0  0  0  0
  6  7  1  0  0  0  0
  6  8  2  0  0  0  0
  7 10  2  0  0  0  0
  8  9  1  0  0  0  0
  8 15  1  0  0  0  0
  9 11  2  0  0  0  0
 10 11  1  0  0  0  0
 10 16  1  0  0  0  0
 12 13  1  0  0  0  0
 12 17  1  0  0  0  0
 12 18  1  0  0  0  0
 13 14  3  0  0  0  0
M  END
> <DATABASE_ID>
DB00793

> <DATABASE_NAME>
drugbank

> <ORIGINAL_SOURCE>
PUBCHEM

> <ORIGINAL_SOURCE_URL>
https://pubchem.ncbi.nlm.nih.gov/rest/pug/compound/inchikey/CTETYYAZBPJBHE-UHFFFAOYSA-N/SDF?record_type=3d

> <SMILES>
ClC1=CC(Cl)=C(Cl)C=C1OCC#CI

> <INCHI_IDENTIFIER>
InChI=1S/C9H4Cl3IO/c10-6-4-8(12)9(5-7(6)11)14-3-1-2-13/h4-5H,3H2

> <INCHI_KEY>
CTETYYAZBPJBHE-UHFFFAOYSA-N

> <FORMULA>
C9H4Cl3IO

> <MOLECULAR_WEIGHT>
361.391

> <EXACT_MASS>
359.837241291

> <JCHEM_ACCEPTOR_COUNT>
1

> <JCHEM_AVERAGE_POLARIZABILITY>
26.81779081943042

> <JCHEM_BIOAVAILABILITY>
1

> <JCHEM_DONOR_COUNT>
0

> <JCHEM_FORMAL_CHARGE>
0

> <JCHEM_GHOSE_FILTER>
0

> <JCHEM_IUPAC>
1,2,4-trichloro-5-[(3-iodoprop-2-yn-1-yl)oxy]benzene

> <ALOGPS_LOGP>
4.69

> <JCHEM_LOGP>
4.8453

> <ALOGPS_LOGS>
-4.78

> <JCHEM_MDDR_LIKE_RULE>
0

> <JCHEM_NUMBER_OF_RINGS>
1

> <JCHEM_PHYSIOLOGICAL_CHARGE>
0

> <JCHEM_PKA_STRONGEST_BASIC>
-4.962264068206132

> <JCHEM_POLAR_SURFACE_AREA>
9.23

> <JCHEM_REFRACTIVITY>
66.87900000000002

> <JCHEM_ROTATABLE_BOND_COUNT>
3

> <JCHEM_RULE_OF_FIVE>
1

> <ALOGPS_SOLUBILITY>
6.01e-03 g/l

> <JCHEM_TRADITIONAL_IUPAC>
haloprogin

> <JCHEM_VEBER_RULE>
1

$$$$
5284447
  -OEChem-10051719243D

 94 97  0     1  0  0  0  0  0999 V2000
    1.0717   -2.4370   -0.7728 O   0  0  0  0  0  0  0  0  0  0  0  0
   -5.0762   -1.3934   -3.0086 O   0  0  0  0  0  0  0  0  0  0  0  0
    0.0813   -4.5780   -0.6133 O   0  0  0  0  0  0  0  0  0  0  0  0
    0.9329   -2.8276    3.3392 O   0  0  0  0  0  0  0  0  0  0  0  0
    4.5395    0.0750   -1.4944 O   0  0  0  0  0  0  0  0  0  0  0  0
   -3.1709   -3.2724    0.3256 O   0  0  0  0  0  0  0  0  0  0  0  0
    4.8595    1.7851    0.0799 O   0  0  0  0  0  0  0  0  0  0  0  0
    4.1704   -1.9682    2.6359 O   0  0  0  0  0  0  0  0  0  0  0  0
    3.9719   -4.1321    1.9473 O   0  0  0  0  0  0  0  0  0  0  0  0
    6.1130    2.1905   -2.4733 O   0  0  0  0  0  0  0  0  0  0  0  0
    7.8567    3.5299    1.2857 O   0  0  0  0  0  0  0  0  0  0  0  0
   -7.2033    1.8154    0.3056 O   0  0  0  0  0  0  0  0  0  0  0  0
   -7.7652    0.5394    2.1420 O   0  0  0  0  0  0  0  0  0  0  0  0
    8.7052    2.6521   -1.3801 N   0  0  0  0  0  0  0  0  0  0  0  0
   -0.0505   -3.1933   -0.2898 C   0  0  1  0  0  0  0  0  0  0  0  0
    2.3256   -2.7647   -0.1671 C   0  0  2  0  0  0  0  0  0  0  0  0
    2.2811   -2.5098    1.3462 C   0  0  1  0  0  0  0  0  0  0  0  0
   -0.1989   -2.9804    1.2213 C   0  0  0  0  0  0  0  0  0  0  0  0
    1.1001   -3.2482    1.9854 C   0  0  2  0  0  0  0  0  0  0  0  0
   -1.2676   -2.6501   -1.0819 C   0  0  0  0  0  0  0  0  0  0  0  0
   -2.5786   -3.4461   -0.9555 C   0  0  2  0  0  0  0  0  0  0  0  0
   -4.1942   -1.7250   -1.9257 C   0  0  2  0  0  0  0  0  0  0  0  0
   -3.5910   -3.0949   -2.0560 C   0  0  0  0  0  0  0  0  0  0  0  0
    3.4348   -1.9852   -0.9068 C   0  0  0  0  0  0  0  0  0  0  0  0
   -5.6859   -1.5551   -1.7183 C   0  0  1  0  0  0  0  0  0  0  0  0
    3.4560   -0.4557   -0.7280 C   0  0  2  0  0  0  0  0  0  0  0  0
    3.5499   -2.9861    1.9907 C   0  0  0  0  0  0  0  0  0  0  0  0
    5.4870    0.7358   -0.6599 C   0  0  2  0  0  0  0  0  0  0  0  0
    6.6433    1.2876   -1.4984 C   0  0  2  0  0  0  0  0  0  0  0  0
    7.6506    2.0091   -0.5924 C   0  0  2  0  0  0  0  0  0  0  0  0
    6.9461    3.0422    0.3029 C   0  0  1  0  0  0  0  0  0  0  0  0
   -6.1769   -0.4095   -0.9400 C   0  0  0  0  0  0  0  0  0  0  0  0
    5.7462    2.4012    1.0189 C   0  0  1  0  0  0  0  0  0  0  0  0
    2.2017    0.2112   -1.2117 C   0  0  0  0  0  0  0  0  0  0  0  0
    4.9394    3.4356    1.7979 C   0  0  0  0  0  0  0  0  0  0  0  0
   -6.7989   -0.4951    0.2460 C   0  0  0  0  0  0  0  0  0  0  0  0
    1.3653    0.8797   -0.4041 C   0  0  0  0  0  0  0  0  0  0  0  0
   -7.3106    0.6634    1.0129 C   0  0  0  0  0  0  0  0  0  0  0  0
    0.1088    1.4315   -0.8538 C   0  0  0  0  0  0  0  0  0  0  0  0
   -0.7577    2.0301   -0.0237 C   0  0  0  0  0  0  0  0  0  0  0  0
   -7.5684    3.0533    0.9600 C   0  0  1  0  0  0  0  0  0  0  0  0
   -6.6315    4.1469    0.4299 C   0  0  0  0  0  0  0  0  0  0  0  0
   -2.0542    2.5039   -0.4517 C   0  0  0  0  0  0  0  0  0  0  0  0
   -9.0214    3.3631    0.6229 C   0  0  0  0  0  0  0  0  0  0  0  0
   -5.2120    3.8609    0.8376 C   0  0  0  0  0  0  0  0  0  0  0  0
   -2.9476    3.0397    0.3929 C   0  0  0  0  0  0  0  0  0  0  0  0
   -4.2767    3.4256   -0.0194 C   0  0  0  0  0  0  0  0  0  0  0  0
    2.5183   -3.8294   -0.3578 H   0  0  0  0  0  0  0  0  0  0  0  0
    2.1468   -1.4415    1.5528 H   0  0  0  0  0  0  0  0  0  0  0  0
   -0.9810   -3.6279    1.6340 H   0  0  0  0  0  0  0  0  0  0  0  0
   -0.5063   -1.9456    1.4239 H   0  0  0  0  0  0  0  0  0  0  0  0
    1.2925   -4.3284    2.0033 H   0  0  0  0  0  0  0  0  0  0  0  0
   -0.9853   -2.6266   -2.1440 H   0  0  0  0  0  0  0  0  0  0  0  0
   -1.4300   -1.6042   -0.7918 H   0  0  0  0  0  0  0  0  0  0  0  0
   -2.3556   -4.5139   -1.0591 H   0  0  0  0  0  0  0  0  0  0  0  0
   -3.5035   -0.9521   -1.6214 H   0  0  0  0  0  0  0  0  0  0  0  0
   -4.3965   -3.8400   -2.0308 H   0  0  0  0  0  0  0  0  0  0  0  0
   -3.1116   -3.1870   -3.0381 H   0  0  0  0  0  0  0  0  0  0  0  0
    3.3557   -2.2037   -1.9815 H   0  0  0  0  0  0  0  0  0  0  0  0
    4.4150   -2.3781   -0.6063 H   0  0  0  0  0  0  0  0  0  0  0  0
   -6.2825   -2.4538   -1.5944 H   0  0  0  0  0  0  0  0  0  0  0  0
    3.5985   -0.2514    0.3400 H   0  0  0  0  0  0  0  0  0  0  0  0
   -0.1037   -4.6895   -1.5609 H   0  0  0  0  0  0  0  0  0  0  0  0
    5.8849   -0.0074    0.0456 H   0  0  0  0  0  0  0  0  0  0  0  0
    7.1215    0.4695   -2.0504 H   0  0  0  0  0  0  0  0  0  0  0  0
    8.1403    1.2652    0.0494 H   0  0  0  0  0  0  0  0  0  0  0  0
    0.1803   -3.3206    3.7082 H   0  0  0  0  0  0  0  0  0  0  0  0
    6.6090    3.8885   -0.3103 H   0  0  0  0  0  0  0  0  0  0  0  0
   -6.0203    0.5635   -1.3984 H   0  0  0  0  0  0  0  0  0  0  0  0
    6.0896    1.6423    1.7346 H   0  0  0  0  0  0  0  0  0  0  0  0
   -3.9856   -3.8027    0.3485 H   0  0  0  0  0  0  0  0  0  0  0  0
    1.9598    0.0953   -2.2663 H   0  0  0  0  0  0  0  0  0  0  0  0
    4.0512    2.9688    2.2383 H   0  0  0  0  0  0  0  0  0  0  0  0
    4.5780    4.2299    1.1354 H   0  0  0  0  0  0  0  0  0  0  0  0
    5.5223    3.8877    2.6051 H   0  0  0  0  0  0  0  0  0  0  0  0
    5.0037   -2.2593    3.0636 H   0  0  0  0  0  0  0  0  0  0  0  0
    8.3069    3.4004   -1.9461 H   0  0  0  0  0  0  0  0  0  0  0  0
    9.3662    3.1062   -0.7503 H   0  0  0  0  0  0  0  0  0  0  0  0
   -6.9493   -1.4660    0.7097 H   0  0  0  0  0  0  0  0  0  0  0  0
    6.8446    2.4476   -3.0595 H   0  0  0  0  0  0  0  0  0  0  0  0
    1.6057    0.9811    0.6512 H   0  0  0  0  0  0  0  0  0  0  0  0
    7.4675    4.3274    1.6818 H   0  0  0  0  0  0  0  0  0  0  0  0
   -0.1405    1.3069   -1.9052 H   0  0  0  0  0  0  0  0  0  0  0  0
   -0.5133    2.1404    1.0306 H   0  0  0  0  0  0  0  0  0  0  0  0
   -7.4521    2.9634    2.0477 H   0  0  0  0  0  0  0  0  0  0  0  0
   -6.9211    5.1262    0.8281 H   0  0  0  0  0  0  0  0  0  0  0  0
   -6.7049    4.2042   -0.6636 H   0  0  0  0  0  0  0  0  0  0  0  0
   -2.3083    2.3715   -1.5011 H   0  0  0  0  0  0  0  0  0  0  0  0
   -9.1693    3.4206   -0.4611 H   0  0  0  0  0  0  0  0  0  0  0  0
   -9.6786    2.5666    0.9875 H   0  0  0  0  0  0  0  0  0  0  0  0
   -9.3399    4.3086    1.0722 H   0  0  0  0  0  0  0  0  0  0  0  0
   -4.9767    3.9721    1.8937 H   0  0  0  0  0  0  0  0  0  0  0  0
   -2.7008    3.1567    1.4457 H   0  0  0  0  0  0  0  0  0  0  0  0
   -4.5310    3.2970   -1.0687 H   0  0  0  0  0  0  0  0  0  0  0  0
  1 15  1  0  0  0  0
  1 16  1  0  0  0  0
  2 22  1  0  0  0  0
  2 25  1  0  0  0  0
  3 15  1  0  0  0  0
  3 63  1  0  0  0  0
  4 19  1  0  0  0  0
  4 67  1  0  0  0  0
  5 26  1  0  0  0  0
  5 28  1  0  0  0  0
  6 21  1  0  0  0  0
  6 71  1  0  0  0  0
  7 28  1  0  0  0  0
  7 33  1  0  0  0  0
  8 27  1  0  0  0  0
  8 76  1  0  0  0  0
  9 27  2  0  0  0  0
 10 29  1  0  0  0  0
 10 80  1  0  0  0  0
 11 31  1  0  0  0  0
 11 82  1  0  0  0  0
 12 38  1  0  0  0  0
 12 41  1  0  0  0  0
 13 38  2  0  0  0  0
 14 30  1  0  0  0  0
 14 77  1  0  0  0  0
 14 78  1  0  0  0  0
 15 18  1  0  0  0  0
 15 20  1  0  0  0  0
 16 17  1  0  0  0  0
 16 24  1  0  0  0  0
 16 48  1  0  0  0  0
 17 19  1  0  0  0  0
 17 27  1  0  0  0  0
 17 49  1  0  0  0  0
 18 19  1  0  0  0  0
 18 50  1  0  0  0  0
 18 51  1  0  0  0  0
 19 52  1  0  0  0  0
 20 21  1  0  0  0  0
 20 53  1  0  0  0  0
 20 54  1  0  0  0  0
 21 23  1  0  0  0  0
 21 55  1  0  0  0  0
 22 23  1  0  0  0  0
 22 25  1  0  0  0  0
 22 56  1  0  0  0  0
 23 57  1  0  0  0  0
 23 58  1  0  0  0  0
 24 26  1  0  0  0  0
 24 59  1  0  0  0  0
 24 60  1  0  0  0  0
 25 32  1  0  0  0  0
 25 61  1  0  0  0  0
 26 34  1  0  0  0  0
 26 62  1  0  0  0  0
 28 29  1  0  0  0  0
 28 64  1  0  0  0  0
 29 30  1  0  0  0  0
 29 65  1  0  0  0  0
 30 31  1  0  0  0  0
 30 66  1  0  0  0  0
 31 33  1  0  0  0  0
 31 68  1  0  0  0  0
 32 36  2  0  0  0  0
 32 69  1  0  0  0  0
 33 35  1  0  0  0  0
 33 70  1  0  0  0  0
 34 37  2  0  0  0  0
 34 72  1  0  0  0  0
 35 73  1  0  0  0  0
 35 74  1  0  0  0  0
 35 75  1  0  0  0  0
 36 38  1  0  0  0  0
 36 79  1  0  0  0  0
 37 39  1  0  0  0  0
 37 81  1  0  0  0  0
 39 40  2  0  0  0  0
 39 83  1  0  0  0  0
 40 43  1  0  0  0  0
 40 84  1  0  0  0  0
 41 42  1  0  0  0  0
 41 44  1  0  0  0  0
 41 85  1  0  0  0  0
 42 45  1  0  0  0  0
 42 86  1  0  0  0  0
 42 87  1  0  0  0  0
 43 46  2  0  0  0  0
 43 88  1  0  0  0  0
 44 89  1  0  0  0  0
 44 90  1  0  0  0  0
 44 91  1  0  0  0  0
 45 47  2  0  0  0  0
 45 92  1  0  0  0  0
 46 47  1  0  0  0  0
 46 93  1  0  0  0  0
 47 94  1  0  0  0  0
M  END
> <DATABASE_ID>
DB00826

> <DATABASE_NAME>
drugbank

> <ORIGINAL_SOURCE>
PUBCHEM

> <ORIGINAL_SOURCE_URL>
https://pubchem.ncbi.nlm.nih.gov/rest/pug/compound/inchikey/NCXMLFZGDNKEPB-FFPOYIOWSA-N/SDF?record_type=3d

> <SMILES>
[H][C@@]12C[C@H](O)C[C@]3(O)C[C@H](O)[C@@H](C(O)=O)[C@]([H])(C[C@@H](O[C@]4([H])O[C@H](C)[C@@H](O)[C@H](N)[C@@H]4O)\C=C\C=C\C=C\C=C\C[C@@H](C)OC(=O)\C=C\[C@@]1([H])O2)O3

> <INCHI_IDENTIFIER>
InChI=1S/C33H47NO13/c1-18-10-8-6-4-3-5-7-9-11-21(45-32-30(39)28(34)29(38)19(2)44-32)15-25-27(31(40)41)22(36)17-33(42,47-25)16-20(35)14-24-23(46-24)12-13-26(37)43-18/h3-9,11-13,18-25,27-30,32,35-36,38-39,42H,10,14-17,34H2,1-2H3,(H,40,41)/b4-3+,7-5+,8-6+,11-9+,13-12+/t18-,19-,20+,21+,22+,23-,24-,25+,27-,28+,29-,30+,32+,33-/m1/s1

> <INCHI_KEY>
NCXMLFZGDNKEPB-FFPOYIOWSA-N

> <FORMULA>
C33H47NO13

> <MOLECULAR_WEIGHT>
665.733

> <EXACT_MASS>
665.304740577

> <JCHEM_ACCEPTOR_COUNT>
13

> <JCHEM_ATOM_COUNT>
94

> <JCHEM_AVERAGE_POLARIZABILITY>
68.57872875871091

> <JCHEM_BIOAVAILABILITY>
0

> <JCHEM_DONOR_COUNT>
7

> <JCHEM_FORMAL_CHARGE>
0

> <JCHEM_GHOSE_FILTER>
0

> <JCHEM_IUPAC>
(1R,3S,5R,7R,8E,12R,14E,16E,18E,20E,22R,24S,25R,26S)-22-{[(2R,3S,4S,5S,6R)-4-amino-3,5-dihydroxy-6-methyloxan-2-yl]oxy}-1,3,26-trihydroxy-12-methyl-10-oxo-6,11,28-trioxatricyclo[22.3.1.0⁵,⁷]octacosa-8,14,16,18,20-pentaene-25-carboxylic acid

> <ALOGPS_LOGP>
-3.46

> <JCHEM_LOGP>
-1.694913093638562

> <ALOGPS_LOGS>
-3.38

> <JCHEM_MDDR_LIKE_RULE>
0

> <JCHEM_NUMBER_OF_RINGS>
4

> <JCHEM_PHYSIOLOGICAL_CHARGE>
0

> <JCHEM_PKA>
11.830297037788116

> <JCHEM_PKA_STRONGEST_ACIDIC>
3.579739281946898

> <JCHEM_PKA_STRONGEST_BASIC>
9.113107009890703

> <JCHEM_POLAR_SURFACE_AREA>
230.98999999999995

> <JCHEM_REFRACTIVITY>
169.88260000000005

> <JCHEM_ROTATABLE_BOND_COUNT>
3

> <JCHEM_RULE_OF_FIVE>
0

> <ALOGPS_SOLUBILITY>
2.78e-01 g/l

> <JCHEM_TRADITIONAL_IUPAC>
natamycin

> <JCHEM_VEBER_RULE>
0

$$$$
1549008
  -OEChem-02031917473D

 47 48  0     1  0  0  0  0  0999 V2000
   -0.9064    2.1676   -0.8185 N   0  0  2  0  0  0  0  0  0  0  0  0
   -1.0240    1.4194    0.4340 C   0  0  0  0  0  0  0  0  0  0  0  0
   -2.3358    0.6961    0.5352 C   0  0  0  0  0  0  0  0  0  0  0  0
   -2.4976   -0.6142    0.0617 C   0  0  0  0  0  0  0  0  0  0  0  0
   -3.7599   -1.2416    0.1872 C   0  0  0  0  0  0  0  0  0  0  0  0
    5.4588   -0.9515    0.2910 C   0  0  0  0  0  0  0  0  0  0  0  0
    0.4019    2.8067   -0.9132 C   0  0  0  0  0  0  0  0  0  0  0  0
   -3.3969    1.3815    1.1232 C   0  0  0  0  0  0  0  0  0  0  0  0
   -1.4373   -1.3171   -0.5332 C   0  0  0  0  0  0  0  0  0  0  0  0
   -1.9741    3.1637   -0.9179 C   0  0  0  0  0  0  0  0  0  0  0  0
   -4.8200   -0.5385    0.7826 C   0  0  0  0  0  0  0  0  0  0  0  0
   -4.6381    0.7644    1.2471 C   0  0  0  0  0  0  0  0  0  0  0  0
   -3.9248   -2.5536   -0.2861 C   0  0  0  0  0  0  0  0  0  0  0  0
    6.7938   -0.2846   -0.0689 C   0  0  0  0  0  0  0  0  0  0  0  0
    5.1601   -2.0761   -0.7102 C   0  0  0  0  0  0  0  0  0  0  0  0
    5.5413   -1.5343    1.7088 C   0  0  0  0  0  0  0  0  0  0  0  0
    1.5125    1.8049   -0.8138 C   0  0  0  0  0  0  0  0  0  0  0  0
   -1.6191   -2.6199   -0.9982 C   0  0  0  0  0  0  0  0  0  0  0  0
   -2.8604   -3.2368   -0.8750 C   0  0  0  0  0  0  0  0  0  0  0  0
    4.3757    0.0554    0.2359 C   0  0  0  0  0  0  0  0  0  0  0  0
    2.4552    1.8371    0.1384 C   0  0  0  0  0  0  0  0  0  0  0  0
    3.4951    0.8713    0.1898 C   0  0  0  0  0  0  0  0  0  0  0  0
   -0.9308    2.1048    1.2910 H   0  0  0  0  0  0  0  0  0  0  0  0
   -0.2126    0.7043    0.5983 H   0  0  0  0  0  0  0  0  0  0  0  0
    0.4986    3.3031   -1.8870 H   0  0  0  0  0  0  0  0  0  0  0  0
    0.5133    3.5864   -0.1476 H   0  0  0  0  0  0  0  0  0  0  0  0
   -3.2763    2.3902    1.5091 H   0  0  0  0  0  0  0  0  0  0  0  0
   -0.4512   -0.8867   -0.6755 H   0  0  0  0  0  0  0  0  0  0  0  0
   -1.8030    3.8079   -1.7897 H   0  0  0  0  0  0  0  0  0  0  0  0
   -2.0285    3.8189   -0.0408 H   0  0  0  0  0  0  0  0  0  0  0  0
   -2.9504    2.7072   -1.1057 H   0  0  0  0  0  0  0  0  0  0  0  0
   -5.7986   -1.0015    0.8906 H   0  0  0  0  0  0  0  0  0  0  0  0
   -5.4653    1.2955    1.7091 H   0  0  0  0  0  0  0  0  0  0  0  0
   -4.8863   -3.0555   -0.2003 H   0  0  0  0  0  0  0  0  0  0  0  0
    6.7653    0.1470   -1.0766 H   0  0  0  0  0  0  0  0  0  0  0  0
    7.6186   -1.0054   -0.0374 H   0  0  0  0  0  0  0  0  0  0  0  0
    7.0337    0.5287    0.6265 H   0  0  0  0  0  0  0  0  0  0  0  0
    4.2078   -2.5701   -0.4829 H   0  0  0  0  0  0  0  0  0  0  0  0
    5.0898   -1.6902   -1.7343 H   0  0  0  0  0  0  0  0  0  0  0  0
    5.9452   -2.8405   -0.6942 H   0  0  0  0  0  0  0  0  0  0  0  0
    5.7492   -0.7531    2.4498 H   0  0  0  0  0  0  0  0  0  0  0  0
    4.5988   -2.0145    1.9981 H   0  0  0  0  0  0  0  0  0  0  0  0
    6.3357   -2.2854    1.7834 H   0  0  0  0  0  0  0  0  0  0  0  0
    1.5401    1.0269   -1.5749 H   0  0  0  0  0  0  0  0  0  0  0  0
   -0.7924   -3.1516   -1.4605 H   0  0  0  0  0  0  0  0  0  0  0  0
   -3.0015   -4.2507   -1.2381 H   0  0  0  0  0  0  0  0  0  0  0  0
    2.4431    2.6098    0.9003 H   0  0  0  0  0  0  0  0  0  0  0  0
  1  2  1  0  0  0  0
  1  7  1  0  0  0  0
  1 10  1  0  0  0  0
  2  3  1  0  0  0  0
  2 23  1  0  0  0  0
  2 24  1  0  0  0  0
  3  4  1  0  0  0  0
  3  8  2  0  0  0  0
  4  5  1  0  0  0  0
  4  9  2  0  0  0  0
  5 11  1  0  0  0  0
  5 13  2  0  0  0  0
  6 14  1  0  0  0  0
  6 15  1  0  0  0  0
  6 16  1  0  0  0  0
  6 20  1  0  0  0  0
  7 17  1  0  0  0  0
  7 25  1  0  0  0  0
  7 26  1  0  0  0  0
  8 12  1  0  0  0  0
  8 27  1  0  0  0  0
  9 18  1  0  0  0  0
  9 28  1  0  0  0  0
 10 29  1  0  0  0  0
 10 30  1  0  0  0  0
 10 31  1  0  0  0  0
 11 12  2  0  0  0  0
 11 32  1  0  0  0  0
 12 33  1  0  0  0  0
 13 19  1  0  0  0  0
 13 34  1  0  0  0  0
 14 35  1  0  0  0  0
 14 36  1  0  0  0  0
 14 37  1  0  0  0  0
 15 38  1  0  0  0  0
 15 39  1  0  0  0  0
 15 40  1  0  0  0  0
 16 41  1  0  0  0  0
 16 42  1  0  0  0  0
 16 43  1  0  0  0  0
 17 21  2  0  0  0  0
 17 44  1  0  0  0  0
 18 19  2  0  0  0  0
 18 45  1  0  0  0  0
 19 46  1  0  0  0  0
 20 22  3  0  0  0  0
 21 22  1  0  0  0  0
 21 47  1  0  0  0  0
M  END
> <DATABASE_ID>
DB00857

> <DATABASE_NAME>
drugbank

> <ORIGINAL_SOURCE>
PUBCHEM

> <ORIGINAL_SOURCE_URL>
https://pubchem.ncbi.nlm.nih.gov/rest/pug/compound/inchikey/DOMXUEMWDBAQBQ-WEVVVXLNSA-N/SDF?record_type=3d

> <SMILES>
CN(C\C=C\C#CC(C)(C)C)CC1=CC=CC2=CC=CC=C12

> <INCHI_IDENTIFIER>
InChI=1S/C21H25N/c1-21(2,3)15-8-5-9-16-22(4)17-19-13-10-12-18-11-6-7-14-20(18)19/h5-7,9-14H,16-17H2,1-4H3/b9-5+

> <INCHI_KEY>
DOMXUEMWDBAQBQ-WEVVVXLNSA-N

> <FORMULA>
C21H25N

> <MOLECULAR_WEIGHT>
291.4299

> <EXACT_MASS>
291.198699805

> <JCHEM_ACCEPTOR_COUNT>
1

> <JCHEM_ATOM_COUNT>
47

> <JCHEM_AVERAGE_POLARIZABILITY>
35.837349567196924

> <JCHEM_BIOAVAILABILITY>
1

> <JCHEM_DONOR_COUNT>
0

> <JCHEM_FORMAL_CHARGE>
0

> <JCHEM_GHOSE_FILTER>
1

> <JCHEM_IUPAC>
[(2E)-6,6-dimethylhept-2-en-4-yn-1-yl](methyl)[(naphthalen-1-yl)methyl]amine

> <ALOGPS_LOGP>
5.51

> <JCHEM_LOGP>
5.527483033666666

> <ALOGPS_LOGS>
-5.60

> <JCHEM_MDDR_LIKE_RULE>
0

> <JCHEM_NUMBER_OF_RINGS>
2

> <JCHEM_PHYSIOLOGICAL_CHARGE>
1

> <JCHEM_PKA_STRONGEST_BASIC>
8.858516802624113

> <JCHEM_POLAR_SURFACE_AREA>
3.24

> <JCHEM_REFRACTIVITY>
98.07520000000001

> <JCHEM_ROTATABLE_BOND_COUNT>
6

> <JCHEM_RULE_OF_FIVE>
0

> <ALOGPS_SOLUBILITY>
7.38e-04 g/l

> <JCHEM_TRADITIONAL_IUPAC>
saquinavir

> <JCHEM_VEBER_RULE>
1

$$$$

  Mrv1652308021723372D          

 69 72  0  0  0  0            999 V2000
   -2.1439    4.2946    0.0000 C   0  0  0  0  0  0  0  0  0  0  0  0
   -2.1439    3.4697    0.0000 C   0  0  2  0  0  0  0  0  0  0  0  0
   -2.8583    4.7072    0.0000 C   0  0  0  0  0  0  0  0  0  0  0  0
   -2.8583    3.0571    0.0000 N   0  0  0  0  0  0  0  0  0  0  0  0
   -3.5729    4.2946    0.0000 C   0  0  0  0  0  0  0  0  0  0  0  0
   -3.5729    3.4697    0.0000 C   0  0  0  0  0  0  0  0  0  0  0  0
   -1.4291    3.0571    0.0000 C   0  0  0  0  0  0  0  0  0  0  0  0
   -1.4291    2.2321    0.0000 O   0  0  0  0  0  0  0  0  0  0  0  0
   -2.1439    1.8195    0.0000 O   0  0  0  0  0  0  0  0  0  0  0  0
   -2.8582    2.2321    0.0000 C   0  0  0  0  0  0  0  0  0  0  0  0
   -3.5728    1.8194    0.0000 C   0  0  0  0  0  0  0  0  0  0  0  0
   -4.2871    2.2319    0.0000 O   0  0  0  0  0  0  0  0  0  0  0  0
    0.0000    3.0571    0.0000 C   0  0  2  0  0  0  0  0  0  0  0  0
    0.0000    2.2321    0.0000 C   0  0  0  0  0  0  0  0  0  0  0  0
   -0.7148    3.4697    0.0000 O   0  0  0  0  0  0  0  0  0  0  0  0
    1.4288    3.0571    0.0000 C   0  0  0  0  0  0  0  0  0  0  0  0
    1.4288    2.2321    0.0000 O   0  0  0  0  0  0  0  0  0  0  0  0
    0.7144    3.4697    0.0000 C   0  0  1  0  0  0  0  0  0  0  0  0
    0.7144    1.8195    0.0000 C   0  0  0  0  0  0  0  0  0  0  0  0
    2.1435    4.2946    0.0000 C   0  0  0  0  0  0  0  0  0  0  0  0
    2.1435    3.4697    0.0000 C   0  0  2  0  0  0  0  0  0  0  0  0
    0.7145    4.2946    0.0000 C   0  0  0  0  0  0  0  0  0  0  0  0
    3.5727    4.2946    0.0000 C   0  0  1  0  0  0  0  0  0  0  0  0
    3.5727    3.4697    0.0000 C   0  0  1  0  0  0  0  0  0  0  0  0
    2.8580    4.7072    0.0000 C   0  0  0  0  0  0  0  0  0  0  0  0
    2.8580    3.0571    0.0000 C   0  0  0  0  0  0  0  0  0  0  0  0
   -2.8583    0.5820    0.0000 O   0  0  0  0  0  0  0  0  0  0  0  0
   -3.5728    0.9946    0.0000 C   0  0  2  0  0  0  0  0  0  0  0  0
   -2.8583   -0.2428    0.0000 C   0  0  1  0  0  0  0  0  0  0  0  0
   -3.5729   -0.6551    0.0000 C   0  0  0  0  0  0  0  0  0  0  0  0
   -4.2871    0.5821    0.0000 C   0  0  1  0  0  0  0  0  0  0  0  0
   -4.2873   -0.2426    0.0000 C   0  0  0  0  0  0  0  0  0  0  0  0
   -2.1439   -0.6553    0.0000 C   0  0  0  0  0  0  0  0  0  0  0  0
   -2.1439   -1.4805    0.0000 C   0  0  2  0  0  0  0  0  0  0  0  0
   -2.8583   -1.8930    0.0000 O   0  0  0  0  0  0  0  0  0  0  0  0
   -0.7148   -1.4805    0.0000 C   0  0  0  0  0  0  0  0  0  0  0  0
   -1.4294   -1.8930    0.0000 C   0  0  0  0  0  0  0  0  0  0  0  0
   -1.4294   -2.7180    0.0000 C   0  0  0  0  0  0  0  0  0  0  0  0
   -2.8583   -2.7178    0.0000 C   0  0  0  0  0  0  0  0  0  0  0  0
   -0.0011    3.9919    0.0000 H   0  0  0  0  0  0  0  0  0  0  0  0
   -5.0016    0.9948    0.0000 C   0  0  0  0  0  0  0  0  0  0  0  0
    0.7144    0.9944    0.0000 C   0  0  2  0  0  0  0  0  0  0  0  0
   -0.0002    0.5820    0.0000 C   0  0  0  0  0  0  0  0  0  0  0  0
    1.4288    0.5818    0.0000 C   0  0  0  0  0  0  0  0  0  0  0  0
    1.4288   -0.2431    0.0000 C   0  0  0  0  0  0  0  0  0  0  0  0
    0.7144   -0.6556    0.0000 C   0  0  0  0  0  0  0  0  0  0  0  0
    2.1434   -0.6556    0.0000 C   0  0  2  0  0  0  0  0  0  0  0  0
    2.1434   -1.4807    0.0000 C   0  0  1  0  0  0  0  0  0  0  0  0
    1.4287   -1.8931    0.0000 O   0  0  0  0  0  0  0  0  0  0  0  0
    2.8580   -0.2431    0.0000 O   0  0  0  0  0  0  0  0  0  0  0  0
    2.8579   -1.8931    0.0000 C   0  0  0  0  0  0  0  0  0  0  0  0
   -2.1934    0.2209    0.0000 H   0  0  0  0  0  0  0  0  0  0  0  0
   -0.7211   -3.1504    0.0000 C   0  0  0  0  0  0  0  0  0  0  0  0
   -0.7211   -4.1090    0.0000 C   0  0  0  0  0  0  0  0  0  0  0  0
    2.8579   -2.7182    0.0000 C   0  0  1  0  0  0  0  0  0  0  0  0
    2.1198   -3.1149    0.0000 C   0  0  0  0  0  0  0  0  0  0  0  0
    1.4288   -2.7180    0.0000 C   0  0  0  0  0  0  0  0  0  0  0  0
    3.5724   -1.4807    0.0000 O   0  0  0  0  0  0  0  0  0  0  0  0
   -0.0609   -4.4784    0.0000 C   0  0  0  0  0  0  0  0  0  0  0  0
    0.6540   -3.9833    0.0000 C   0  0  0  0  0  0  0  0  0  0  0  0
    1.5631   -3.9833    0.0000 C   0  0  1  0  0  0  0  0  0  0  0  0
    3.5772   -3.1032    0.0000 C   0  0  0  0  0  0  0  0  0  0  0  0
    2.1548    2.6720    0.0000 H   0  0  0  0  0  0  0  0  0  0  0  0
    4.2870    4.7072    0.0000 O   0  0  0  0  0  0  0  0  0  0  0  0
    4.2870    3.0571    0.0000 O   0  0  0  0  0  0  0  0  0  0  0  0
    5.0016    3.4696    0.0000 C   0  0  0  0  0  0  0  0  0  0  0  0
   -2.1433    2.6249    0.0000 H   0  0  0  0  0  0  0  0  0  0  0  0
   -2.9085    1.4050    0.0000 O   0  0  0  0  0  0  0  0  0  0  0  0
    1.9590   -4.7073    0.0000 C   0  0  0  0  0  0  0  0  0  0  0  0
  2  1  1  0  0  0  0
  3  1  1  0  0  0  0
  5  3  1  0  0  0  0
  6  5  1  0  0  0  0
  2  7  1  1  0  0  0
  4  2  1  0  0  0  0
  6  4  1  0  0  0  0
 10  4  1  0  0  0  0
 12 11  2  0  0  0  0
 15 13  1  0  0  0  0
  7 15  1  0  0  0  0
  8  7  2  0  0  0  0
 19 17  2  0  0  0  0
 13 18  1  0  0  0  0
 14 13  1  0  0  0  0
 16 21  1  0  0  0  0
 18 16  1  0  0  0  0
 18 22  1  6  0  0  0
 24 23  1  0  0  0  0
 25 23  1  0  0  0  0
 26 24  1  0  0  0  0
 20 25  1  0  0  0  0
 21 26  1  0  0  0  0
 21 20  1  0  0  0  0
 10  9  2  0  0  0  0
 11 10  1  0  0  0  0
 28 11  1  0  0  0  0
 29 27  1  6  0  0  0
 28 27  1  6  0  0  0
 31 28  1  0  0  0  0
 32 30  1  0  0  0  0
 32 31  1  0  0  0  0
 29 33  1  0  0  0  0
 30 29  1  0  0  0  0
 37 36  1  0  0  0  0
 34 33  1  0  0  0  0
 38 37  2  0  0  0  0
 34 37  1  0  0  0  0
 34 35  1  1  0  0  0
 39 35  1  0  0  0  0
 13 40  1  1  0  0  0
 31 41  1  1  0  0  0
 42 19  1  0  0  0  0
 14 19  1  0  0  0  0
 45 44  2  0  0  0  0
 42 44  1  0  0  0  0
 42 43  1  1  0  0  0
 48 47  1  0  0  0  0
 45 47  1  0  0  0  0
 46 45  1  0  0  0  0
 47 50  1  1  0  0  0
 48 51  1  0  0  0  0
 29 52  1  1  0  0  0
 53 38  1  0  0  0  0
 54 53  2  0  0  0  0
 55 51  1  0  0  0  0
 56 55  1  0  0  0  0
 48 49  1  6  0  0  0
 57 49  1  0  0  0  0
 58 51  2  0  0  0  0
 59 54  1  0  0  0  0
 60 59  2  0  0  0  0
 61 60  1  0  0  0  0
 56 61  1  0  0  0  0
 55 62  1  6  0  0  0
 21 63  1  1  0  0  0
 23 64  1  1  0  0  0
 24 65  1  6  0  0  0
 66 65  1  0  0  0  0
  2 67  1  6  0  0  0
 28 68  1  1  0  0  0
 61 69  1  6  0  0  0
M  END
> <DATABASE_ID>
DB00877

> <DATABASE_NAME>
drugbank

> <SMILES>
[H][C@@]1(C[C@@H](C)[C@]2([H])CC(=O)[C@H](C)\C=C(C)\[C@@H](O)[C@@H](OC)C(=O)[C@H](C)C[C@H](C)\C=C\C=C\C=C(C)\[C@H](C[C@]3([H])CC[C@@H](C)[C@@](O)(O3)C(=O)C(=O)N3CCCC[C@@]3([H])C(=O)O2)OC)CC[C@@H](O)[C@@H](C1)OC

> <INCHI_IDENTIFIER>
InChI=1S/C51H79NO13/c1-30-16-12-11-13-17-31(2)42(61-8)28-38-21-19-36(7)51(60,65-38)48(57)49(58)52-23-15-14-18-39(52)50(59)64-43(33(4)26-37-20-22-40(53)44(27-37)62-9)29-41(54)32(3)25-35(6)46(56)47(63-10)45(55)34(5)24-30/h11-13,16-17,25,30,32-34,36-40,42-44,46-47,53,56,60H,14-15,18-24,26-29H2,1-10H3/b13-11+,16-12+,31-17+,35-25+/t30-,32-,33-,34-,36-,37+,38+,39+,40-,42+,43+,44-,46-,47+,51-/m1/s1

> <INCHI_KEY>
QFJCIRLUMZQUOT-HPLJOQBZSA-N

> <FORMULA>
C51H79NO13

> <MOLECULAR_WEIGHT>
914.187

> <EXACT_MASS>
913.555141608

> <JCHEM_ACCEPTOR_COUNT>
12

> <JCHEM_ATOM_COUNT>
144

> <JCHEM_AVERAGE_POLARIZABILITY>
101.7426676674582

> <JCHEM_BIOAVAILABILITY>
0

> <JCHEM_DONOR_COUNT>
3

> <JCHEM_FORMAL_CHARGE>
0

> <JCHEM_GHOSE_FILTER>
0

> <JCHEM_IUPAC>
(1R,9S,12S,15R,16E,18R,19R,21R,23S,24E,26E,28E,30S,32S,35R)-1,18-dihydroxy-12-[(2R)-1-[(1S,3R,4R)-4-hydroxy-3-methoxycyclohexyl]propan-2-yl]-19,30-dimethoxy-15,17,21,23,29,35-hexamethyl-11,36-dioxa-4-azatricyclo[30.3.1.0^{4,9}]hexatriaconta-16,24,26,28-tetraene-2,3,10,14,20-pentone

> <ALOGPS_LOGP>
4.85

> <JCHEM_LOGP>
7.45083982266667

> <ALOGPS_LOGS>
-5.72

> <JCHEM_MDDR_LIKE_RULE>
1

> <JCHEM_NUMBER_OF_RINGS>
4

> <JCHEM_PHYSIOLOGICAL_CHARGE>
0

> <JCHEM_PKA>
13.368197872426823

> <JCHEM_PKA_STRONGEST_ACIDIC>
9.963727691413887

> <JCHEM_PKA_STRONGEST_BASIC>
-3.040520864948703

> <JCHEM_POLAR_SURFACE_AREA>
195.42999999999998

> <JCHEM_REFRACTIVITY>
250.6632000000001

> <JCHEM_ROTATABLE_BOND_COUNT>
6

> <JCHEM_RULE_OF_FIVE>
0

> <ALOGPS_SOLUBILITY>
1.73e-03 g/l

> <JCHEM_TRADITIONAL_IUPAC>
(1R,9S,12S,15R,16E,18R,19R,21R,23S,24E,26E,28E,30S,32S,35R)-1,18-dihydroxy-12-[(2R)-1-[(1S,3R,4R)-4-hydroxy-3-methoxycyclohexyl]propan-2-yl]-19,30-dimethoxy-15,17,21,23,29,35-hexamethyl-11,36-dioxa-4-azatricyclo[30.3.1.0^{4,9}]hexatriaconta-16,24,26,28-tetraene-2,3,10,14,20-pentone

> <JCHEM_VEBER_RULE>
0

> <DRUGBANK_ID>
DB00877

> <SECONDARY_ACCESSION_NUMBERS>
APRD00178; DB02439

> <DRUG_GROUPS>
approved; investigational

> <GENERIC_NAME>
Sirolimus

> <SYNONYMS>
(-)-Rapamycin; Rapamycin; Sirolimús; Sirolimus; Sirolimusum

> <PRODUCTS>
Gd-sirolimus; Rapamune; Sirolimus

$$$$
338
  -OEChem-04221913463D

 16 16  0     0  0  0  0  0  0999 V2000
    0.2626   -2.1794   -0.1866 O   0  0  0  0  0  0  0  0  0  0  0  0
    2.2319    1.3945   -0.4792 O   0  0  0  0  0  0  0  0  0  0  0  0
    2.4659   -0.6561    0.4730 O   0  0  0  0  0  0  0  0  0  0  0  0
    0.2790    0.2094    0.0344 C   0  0  0  0  0  0  0  0  0  0  0  0
   -0.4094   -0.9983   -0.0809 C   0  0  0  0  0  0  0  0  0  0  0  0
   -0.4275    1.4075    0.1399 C   0  0  0  0  0  0  0  0  0  0  0  0
   -1.8043   -1.0077   -0.0907 C   0  0  0  0  0  0  0  0  0  0  0  0
   -1.8223    1.3979    0.1300 C   0  0  0  0  0  0  0  0  0  0  0  0
   -2.5108    0.1904    0.0146 C   0  0  0  0  0  0  0  0  0  0  0  0
    1.7349    0.2418    0.0455 C   0  0  0  0  0  0  0  0  0  0  0  0
    0.0796    2.3632    0.2437 H   0  0  0  0  0  0  0  0  0  0  0  0
   -2.3539   -1.9410   -0.1801 H   0  0  0  0  0  0  0  0  0  0  0  0
   -2.3728    2.3304    0.2150 H   0  0  0  0  0  0  0  0  0  0  0  0
   -3.5968    0.1831    0.0077 H   0  0  0  0  0  0  0  0  0  0  0  0
   -0.3805   -2.9057   -0.2573 H   0  0  0  0  0  0  0  0  0  0  0  0
    3.2128    1.4077   -0.4679 H   0  0  0  0  0  0  0  0  0  0  0  0
  1  5  1  0  0  0  0
  1 15  1  0  0  0  0
  2 10  1  0  0  0  0
  2 16  1  0  0  0  0
  3 10  2  0  0  0  0
  4  5  1  0  0  0  0
  4  6  2  0  0  0  0
  4 10  1  0  0  0  0
  5  7  2  0  0  0  0
  6  8  1  0  0  0  0
  6 11  1  0  0  0  0
  7  9  1  0  0  0  0
  7 12  1  0  0  0  0
  8  9  2  0  0  0  0
  8 13  1  0  0  0  0
  9 14  1  0  0  0  0
M  END
> <DATABASE_ID>
DB00936

> <DATABASE_NAME>
drugbank

> <ORIGINAL_SOURCE>
PUBCHEM

> <ORIGINAL_SOURCE_URL>
https://pubchem.ncbi.nlm.nih.gov/rest/pug/compound/inchikey/YGSDEFSMJLZEOE-UHFFFAOYSA-N/SDF?record_type=3d

> <SMILES>
OC(=O)C1=CC=CC=C1O

> <INCHI_IDENTIFIER>
InChI=1S/C7H6O3/c8-6-4-2-1-3-5(6)7(9)10/h1-4,8H,(H,9,10)

> <INCHI_KEY>
YGSDEFSMJLZEOE-UHFFFAOYSA-N

> <FORMULA>
C7H6O3

> <MOLECULAR_WEIGHT>
138.122

> <EXACT_MASS>
138.031694053

> <JCHEM_ACCEPTOR_COUNT>
3

> <JCHEM_ATOM_COUNT>
16

> <JCHEM_AVERAGE_POLARIZABILITY>
12.814587378025518

> <JCHEM_BIOAVAILABILITY>
1

> <JCHEM_DONOR_COUNT>
2

> <JCHEM_FORMAL_CHARGE>
0

> <JCHEM_GHOSE_FILTER>
0

> <JCHEM_IUPAC>
2-hydroxybenzoic acid

> <ALOGPS_LOGP>
1.96

> <JCHEM_LOGP>
1.977263402333333

> <ALOGPS_LOGS>
-1.09

> <JCHEM_MDDR_LIKE_RULE>
0

> <JCHEM_NUMBER_OF_RINGS>
1

> <JCHEM_PHYSIOLOGICAL_CHARGE>
-1

> <JCHEM_PKA>
13.228682517040584

> <JCHEM_PKA_STRONGEST_ACIDIC>
2.7897391795725692

> <JCHEM_PKA_STRONGEST_BASIC>
-6.285929432184691

> <JCHEM_POLAR_SURFACE_AREA>
57.53

> <JCHEM_REFRACTIVITY>
35.2951

> <JCHEM_ROTATABLE_BOND_COUNT>
1

> <JCHEM_RULE_OF_FIVE>
1

> <ALOGPS_SOLUBILITY>
1.13e+01 g/l

> <JCHEM_TRADITIONAL_IUPAC>
phenol O-(β-D-glucuronide)

> <JCHEM_VEBER_RULE>
0

$$$$
5482
  -OEChem-10051719273D

 36 38  0     1  0  0  0  0  0999 V2000
   -1.7343   -1.4552   -2.6992 Cl  0  0  0  0  0  0  0  0  0  0  0  0
   -5.8775   -0.3380    0.5497 Cl  0  0  0  0  0  0  0  0  0  0  0  0
   -0.9307    3.3780    1.2951 Cl  0  0  0  0  0  0  0  0  0  0  0  0
    1.5762    4.7242    0.4698 S   0  0  0  0  0  0  0  0  0  0  0  0
    0.6907    0.1654    0.0616 O   0  0  0  0  0  0  0  0  0  0  0  0
    2.0651   -2.3552    0.5330 N   0  0  0  0  0  0  0  0  0  0  0  0
    3.9356   -3.1982   -0.2785 N   0  0  0  0  0  0  0  0  0  0  0  0
    0.0335   -1.0815   -0.2021 C   0  0  1  0  0  0  0  0  0  0  0  0
    0.6364   -2.1475    0.7355 C   0  0  0  0  0  0  0  0  0  0  0  0
   -1.4423   -0.9030   -0.0468 C   0  0  0  0  0  0  0  0  0  0  0  0
    0.2556    1.1701   -0.8371 C   0  0  0  0  0  0  0  0  0  0  0  0
   -2.3153   -1.0532   -1.1244 C   0  0  0  0  0  0  0  0  0  0  0  0
   -1.9408   -0.5783    1.2148 C   0  0  0  0  0  0  0  0  0  0  0  0
    3.0618   -1.6884    1.1687 C   0  0  0  0  0  0  0  0  0  0  0  0
    0.9696    2.4517   -0.5219 C   0  0  0  0  0  0  0  0  0  0  0  0
    2.6228   -3.2493   -0.3238 C   0  0  0  0  0  0  0  0  0  0  0  0
   -3.6869   -0.8785   -0.9402 C   0  0  0  0  0  0  0  0  0  0  0  0
   -3.3123   -0.4037    1.3990 C   0  0  0  0  0  0  0  0  0  0  0  0
   -4.1854   -0.5537    0.3215 C   0  0  0  0  0  0  0  0  0  0  0  0
    4.2158   -2.2275    0.6504 C   0  0  0  0  0  0  0  0  0  0  0  0
    2.2039    2.8046   -1.1179 C   0  0  0  0  0  0  0  0  0  0  0  0
    0.5069    3.3915    0.3577 C   0  0  0  0  0  0  0  0  0  0  0  0
    2.6518    4.0259   -0.6649 C   0  0  0  0  0  0  0  0  0  0  0  0
    0.3235   -1.3747   -1.2154 H   0  0  0  0  0  0  0  0  0  0  0  0
    0.5233   -1.8687    1.7902 H   0  0  0  0  0  0  0  0  0  0  0  0
    0.1436   -3.1171    0.5939 H   0  0  0  0  0  0  0  0  0  0  0  0
   -0.8216    1.3553   -0.7829 H   0  0  0  0  0  0  0  0  0  0  0  0
    0.4910    0.8702   -1.8665 H   0  0  0  0  0  0  0  0  0  0  0  0
   -1.2798   -0.4424    2.0662 H   0  0  0  0  0  0  0  0  0  0  0  0
    2.8837   -0.9175    1.9054 H   0  0  0  0  0  0  0  0  0  0  0  0
    2.0392   -3.9068   -0.9537 H   0  0  0  0  0  0  0  0  0  0  0  0
   -4.3694   -0.9951   -1.7796 H   0  0  0  0  0  0  0  0  0  0  0  0
   -3.6862   -0.1473    2.3869 H   0  0  0  0  0  0  0  0  0  0  0  0
    5.2340   -1.9653    0.8982 H   0  0  0  0  0  0  0  0  0  0  0  0
    2.7455    2.2058   -1.8391 H   0  0  0  0  0  0  0  0  0  0  0  0
    3.5594    4.5414   -0.9459 H   0  0  0  0  0  0  0  0  0  0  0  0
  1 12  1  0  0  0  0
  2 19  1  0  0  0  0
  3 22  1  0  0  0  0
  4 22  1  0  0  0  0
  4 23  1  0  0  0  0
  5  8  1  0  0  0  0
  5 11  1  0  0  0  0
  6  9  1  0  0  0  0
  6 14  1  0  0  0  0
  6 16  1  0  0  0  0
  7 16  2  0  0  0  0
  7 20  1  0  0  0  0
  8  9  1  0  0  0  0
  8 10  1  0  0  0  0
  8 24  1  0  0  0  0
  9 25  1  0  0  0  0
  9 26  1  0  0  0  0
 10 12  2  0  0  0  0
 10 13  1  0  0  0  0
 11 15  1  0  0  0  0
 11 27  1  0  0  0  0
 11 28  1  0  0  0  0
 12 17  1  0  0  0  0
 13 18  2  0  0  0  0
 13 29  1  0  0  0  0
 14 20  2  0  0  0  0
 14 30  1  0  0  0  0
 15 21  1  0  0  0  0
 15 22  2  0  0  0  0
 16 31  1  0  0  0  0
 17 19  2  0  0  0  0
 17 32  1  0  0  0  0
 18 19  1  0  0  0  0
 18 33  1  0  0  0  0
 20 34  1  0  0  0  0
 21 23  2  0  0  0  0
 21 35  1  0  0  0  0
 23 36  1  0  0  0  0
M  END
> <DATABASE_ID>
DB01007

> <DATABASE_NAME>
drugbank

> <ORIGINAL_SOURCE>
PUBCHEM

> <ORIGINAL_SOURCE_URL>
https://pubchem.ncbi.nlm.nih.gov/rest/pug/compound/inchikey/QXHHHPZILQDDPS-UHFFFAOYSA-N/SDF?record_type=3d

> <SMILES>
ClC1=C(COC(CN2C=CN=C2)C2=C(Cl)C=C(Cl)C=C2)C=CS1

> <INCHI_IDENTIFIER>
InChI=1S/C16H13Cl3N2OS/c17-12-1-2-13(14(18)7-12)15(8-21-5-4-20-10-21)22-9-11-3-6-23-16(11)19/h1-7,10,15H,8-9H2

> <INCHI_KEY>
QXHHHPZILQDDPS-UHFFFAOYSA-N

> <FORMULA>
C16H13Cl3N2OS

> <MOLECULAR_WEIGHT>
387.711

> <EXACT_MASS>
385.981416859

> <JCHEM_ACCEPTOR_COUNT>
2

> <JCHEM_AVERAGE_POLARIZABILITY>
36.83729826565817

> <JCHEM_BIOAVAILABILITY>
1

> <JCHEM_DONOR_COUNT>
0

> <JCHEM_FORMAL_CHARGE>
0

> <JCHEM_GHOSE_FILTER>
1

> <JCHEM_IUPAC>
1-{2-[(2-chlorothiophen-3-yl)methoxy]-2-(2,4-dichlorophenyl)ethyl}-1H-imidazole

> <ALOGPS_LOGP>
4.86

> <JCHEM_LOGP>
5.298761608666666

> <ALOGPS_LOGS>
-4.37

> <JCHEM_MDDR_LIKE_RULE>
1

> <JCHEM_NUMBER_OF_RINGS>
3

> <JCHEM_PHYSIOLOGICAL_CHARGE>
0

> <JCHEM_PKA_STRONGEST_BASIC>
6.767291901447468

> <JCHEM_POLAR_SURFACE_AREA>
27.05

> <JCHEM_REFRACTIVITY>
94.52850000000002

> <JCHEM_ROTATABLE_BOND_COUNT>
6

> <JCHEM_RULE_OF_FIVE>
0

> <ALOGPS_SOLUBILITY>
1.65e-02 g/l

> <JCHEM_TRADITIONAL_IUPAC>
tioconazole

> <JCHEM_VEBER_RULE>
1

$$$$
3823
  -OEChem-10051719283D

 64 68  0     1  0  0  0  0  0999 V2000
   -2.8686   -1.9996   -1.2348 Cl  0  0  0  0  0  0  0  0  0  0  0  0
   -7.8917   -3.9187   -1.0106 Cl  0  0  0  0  0  0  0  0  0  0  0  0
   -2.6900    0.1125    0.2761 O   0  0  0  0  0  0  0  0  0  0  0  0
   -4.4737    1.3697    1.1274 O   0  0  0  0  0  0  0  0  0  0  0  0
   -0.3858   -0.7938    1.7338 O   0  0  0  0  0  0  0  0  0  0  0  0
    9.5350    0.8158   -1.4263 O   0  0  0  0  0  0  0  0  0  0  0  0
    4.9292   -0.5179    0.1830 N   0  0  0  0  0  0  0  0  0  0  0  0
    7.7230   -0.3496   -0.5556 N   0  0  0  0  0  0  0  0  0  0  0  0
   -3.0274    2.6276   -1.0127 N   0  0  0  0  0  0  0  0  0  0  0  0
   -2.3046    4.6461   -0.4336 N   0  0  0  0  0  0  0  0  0  0  0  0
   -4.0207    0.5950   -0.0010 C   0  0  1  0  0  0  0  0  0  0  0  0
   -2.5130    0.3041    1.6812 C   0  0  2  0  0  0  0  0  0  0  0  0
   -3.3213    1.5464    1.9516 C   0  0  0  0  0  0  0  0  0  0  0  0
   -3.9417    1.5121   -1.2210 C   0  0  0  0  0  0  0  0  0  0  0  0
   -4.9722   -0.5619   -0.2680 C   0  0  0  0  0  0  0  0  0  0  0  0
   -1.0439    0.4396    2.0189 C   0  0  0  0  0  0  0  0  0  0  0  0
    5.6899   -1.7295   -0.1324 C   0  0  0  0  0  0  0  0  0  0  0  0
    5.5995    0.7774    0.0390 C   0  0  0  0  0  0  0  0  0  0  0  0
    7.1801   -1.5201    0.1374 C   0  0  0  0  0  0  0  0  0  0  0  0
    6.7608    0.6772   -0.9476 C   0  0  0  0  0  0  0  0  0  0  0  0
    3.5941   -0.5879    0.5735 C   0  0  0  0  0  0  0  0  0  0  0  0
   -4.5278   -1.7627   -0.8211 C   0  0  0  0  0  0  0  0  0  0  0  0
   -6.3192   -0.3994    0.0559 C   0  0  0  0  0  0  0  0  0  0  0  0
    0.9193   -0.7263    1.3533 C   0  0  0  0  0  0  0  0  0  0  0  0
    9.0766   -0.1692   -0.8428 C   0  0  0  0  0  0  0  0  0  0  0  0
    2.7838   -1.6223    0.1054 C   0  0  0  0  0  0  0  0  0  0  0  0
    3.0670    0.3772    1.4315 C   0  0  0  0  0  0  0  0  0  0  0  0
   -1.6911    2.6426   -1.2979 C   0  0  0  0  0  0  0  0  0  0  0  0
   -3.3501    3.8517   -0.4963 C   0  0  0  0  0  0  0  0  0  0  0  0
    1.4464   -1.6914    0.4953 C   0  0  0  0  0  0  0  0  0  0  0  0
    1.7295    0.3082    1.8214 C   0  0  0  0  0  0  0  0  0  0  0  0
   -5.4302   -2.8012   -1.0503 C   0  0  0  0  0  0  0  0  0  0  0  0
   -7.2216   -1.4380   -0.1733 C   0  0  0  0  0  0  0  0  0  0  0  0
   -6.7772   -2.6388   -0.7265 C   0  0  0  0  0  0  0  0  0  0  0  0
   -1.2673    3.8986   -0.9323 C   0  0  0  0  0  0  0  0  0  0  0  0
   10.0049   -1.2735   -0.4005 C   0  0  0  0  0  0  0  0  0  0  0  0
   -2.9474   -0.5714    2.1799 H   0  0  0  0  0  0  0  0  0  0  0  0
   -3.6253    1.6249    2.9994 H   0  0  0  0  0  0  0  0  0  0  0  0
   -2.7981    2.4656    1.6831 H   0  0  0  0  0  0  0  0  0  0  0  0
   -4.9187    1.9506   -1.4595 H   0  0  0  0  0  0  0  0  0  0  0  0
   -3.5838    0.9799   -2.1107 H   0  0  0  0  0  0  0  0  0  0  0  0
   -0.9190    0.6726    3.0822 H   0  0  0  0  0  0  0  0  0  0  0  0
   -0.6305    1.2538    1.4096 H   0  0  0  0  0  0  0  0  0  0  0  0
    5.3544   -2.5762    0.4789 H   0  0  0  0  0  0  0  0  0  0  0  0
    5.5349   -1.9893   -1.1868 H   0  0  0  0  0  0  0  0  0  0  0  0
    4.9028    1.5383   -0.3336 H   0  0  0  0  0  0  0  0  0  0  0  0
    5.9718    1.1037    1.0178 H   0  0  0  0  0  0  0  0  0  0  0  0
    7.3513   -1.3577    1.2086 H   0  0  0  0  0  0  0  0  0  0  0  0
    7.7323   -2.4185   -0.1534 H   0  0  0  0  0  0  0  0  0  0  0  0
    7.2612    1.6472   -1.0385 H   0  0  0  0  0  0  0  0  0  0  0  0
    6.3940    0.4041   -1.9447 H   0  0  0  0  0  0  0  0  0  0  0  0
   -6.6965    0.5290    0.4754 H   0  0  0  0  0  0  0  0  0  0  0  0
    3.1591   -2.3806   -0.5762 H   0  0  0  0  0  0  0  0  0  0  0  0
    3.6773    1.1835    1.8291 H   0  0  0  0  0  0  0  0  0  0  0  0
   -1.1743    1.7914   -1.7188 H   0  0  0  0  0  0  0  0  0  0  0  0
   -4.3543    4.1067   -0.1860 H   0  0  0  0  0  0  0  0  0  0  0  0
    0.8182   -2.4968    0.1245 H   0  0  0  0  0  0  0  0  0  0  0  0
    1.3673    1.0608    2.5154 H   0  0  0  0  0  0  0  0  0  0  0  0
   -5.0854   -3.7385   -1.4819 H   0  0  0  0  0  0  0  0  0  0  0  0
   -8.2690   -1.2965    0.0810 H   0  0  0  0  0  0  0  0  0  0  0  0
   -0.2676    4.3018   -1.0015 H   0  0  0  0  0  0  0  0  0  0  0  0
   11.0420   -0.9498   -0.5320 H   0  0  0  0  0  0  0  0  0  0  0  0
    9.8549   -1.5046    0.6573 H   0  0  0  0  0  0  0  0  0  0  0  0
    9.8407   -2.1650   -1.0111 H   0  0  0  0  0  0  0  0  0  0  0  0
  1 22  1  0  0  0  0
  2 34  1  0  0  0  0
  3 11  1  0  0  0  0
  3 12  1  0  0  0  0
  4 11  1  0  0  0  0
  4 13  1  0  0  0  0
  5 16  1  0  0  0  0
  5 24  1  0  0  0  0
  6 25  2  0  0  0  0
  7 17  1  0  0  0  0
  7 18  1  0  0  0  0
  7 21  1  0  0  0  0
  8 19  1  0  0  0  0
  8 20  1  0  0  0  0
  8 25  1  0  0  0  0
  9 14  1  0  0  0  0
  9 28  1  0  0  0  0
  9 29  1  0  0  0  0
 10 29  2  0  0  0  0
 10 35  1  0  0  0  0
 11 14  1  0  0  0  0
 11 15  1  0  0  0  0
 12 13  1  0  0  0  0
 12 16  1  0  0  0  0
 12 37  1  0  0  0  0
 13 38  1  0  0  0  0
 13 39  1  0  0  0  0
 14 40  1  0  0  0  0
 14 41  1  0  0  0  0
 15 22  2  0  0  0  0
 15 23  1  0  0  0  0
 16 42  1  0  0  0  0
 16 43  1  0  0  0  0
 17 19  1  0  0  0  0
 17 44  1  0  0  0  0
 17 45  1  0  0  0  0
 18 20  1  0  0  0  0
 18 46  1  0  0  0  0
 18 47  1  0  0  0  0
 19 48  1  0  0  0  0
 19 49  1  0  0  0  0
 20 50  1  0  0  0  0
 20 51  1  0  0  0  0
 21 26  2  0  0  0  0
 21 27  1  0  0  0  0
 22 32  1  0  0  0  0
 23 33  2  0  0  0  0
 23 52  1  0  0  0  0
 24 30  2  0  0  0  0
 24 31  1  0  0  0  0
 25 36  1  0  0  0  0
 26 30  1  0  0  0  0
 26 53  1  0  0  0  0
 27 31  2  0  0  0  0
 27 54  1  0  0  0  0
 28 35  2  0  0  0  0
 28 55  1  0  0  0  0
 29 56  1  0  0  0  0
 30 57  1  0  0  0  0
 31 58  1  0  0  0  0
 32 34  2  0  0  0  0
 32 59  1  0  0  0  0
 33 34  1  0  0  0  0
 33 60  1  0  0  0  0
 35 61  1  0  0  0  0
 36 62  1  0  0  0  0
 36 63  1  0  0  0  0
 36 64  1  0  0  0  0
M  END
> <DATABASE_ID>
DB01026

> <DATABASE_NAME>
drugbank

> <ORIGINAL_SOURCE>
PUBCHEM

> <ORIGINAL_SOURCE_URL>
https://pubchem.ncbi.nlm.nih.gov/rest/pug/compound/inchikey/XMAYWYJOQHXEEK-UHFFFAOYSA-N/SDF?record_type=3d

> <SMILES>
CC(=O)N1CCN(CC1)C1=CC=C(OCC2COC(CN3C=CN=C3)(O2)C2=CC=C(Cl)C=C2Cl)C=C1

> <INCHI_IDENTIFIER>
InChI=1S/C26H28Cl2N4O4/c1-19(33)31-10-12-32(13-11-31)21-3-5-22(6-4-21)34-15-23-16-35-26(36-23,17-30-9-8-29-18-30)24-7-2-20(27)14-25(24)28/h2-9,14,18,23H,10-13,15-17H2,1H3

> <INCHI_KEY>
XMAYWYJOQHXEEK-UHFFFAOYSA-N

> <FORMULA>
C26H28Cl2N4O4

> <MOLECULAR_WEIGHT>
531.431

> <EXACT_MASS>
530.148760818

> <JCHEM_ACCEPTOR_COUNT>
6

> <JCHEM_AVERAGE_POLARIZABILITY>
54.825017660667164

> <JCHEM_BIOAVAILABILITY>
1

> <JCHEM_DONOR_COUNT>
0

> <JCHEM_FORMAL_CHARGE>
0

> <JCHEM_GHOSE_FILTER>
0

> <JCHEM_IUPAC>
1-[4-(4-{[2-(2,4-dichlorophenyl)-2-(1H-imidazol-1-ylmethyl)-1,3-dioxolan-4-yl]methoxy}phenyl)piperazin-1-yl]ethan-1-one

> <ALOGPS_LOGP>
4.30

> <JCHEM_LOGP>
4.191597861333333

> <ALOGPS_LOGS>
-4.76

> <JCHEM_MDDR_LIKE_RULE>
1

> <JCHEM_NUMBER_OF_RINGS>
5

> <JCHEM_PHYSIOLOGICAL_CHARGE>
0

> <JCHEM_PKA_STRONGEST_BASIC>
6.746571393297444

> <JCHEM_POLAR_SURFACE_AREA>
69.06

> <JCHEM_REFRACTIVITY>
138.0672

> <JCHEM_ROTATABLE_BOND_COUNT>
7

> <JCHEM_RULE_OF_FIVE>
0

> <ALOGPS_SOLUBILITY>
9.31e-03 g/l

> <JCHEM_TRADITIONAL_IUPAC>
ketoconazole

> <JCHEM_VEBER_RULE>
0

$$$$
5282054
  -OEChem-04031914523D

 33 33  0     1  0  0  0  0  0999 V2000
    2.5528   -1.0418    1.1477 O   0  0  0  0  0  0  0  0  0  0  0  0
    1.3086    0.3278   -1.7249 O   0  0  0  0  0  0  0  0  0  0  0  0
   -0.1448   -1.2875    1.2467 O   0  0  0  0  0  0  0  0  0  0  0  0
   -0.2209   -2.3899   -0.7789 N   0  0  0  0  0  0  0  0  0  0  0  0
    2.7115   -0.8639   -0.2558 C   0  0  1  0  0  0  0  0  0  0  0  0
    1.8776   -1.9699    0.2891 C   0  0  2  0  0  0  0  0  0  0  0  0
    2.0431    0.3766   -0.7467 C   0  0  0  0  0  0  0  0  0  0  0  0
    2.3705    1.6391    0.0265 C   0  0  0  0  0  0  0  0  0  0  0  0
    0.4161   -1.8440    0.3100 C   0  0  0  0  0  0  0  0  0  0  0  0
    1.2647    2.6933   -0.0315 C   0  0  0  0  0  0  0  0  0  0  0  0
   -0.0172    2.2078    0.5846 C   0  0  0  0  0  0  0  0  0  0  0  0
   -1.1923    2.1814   -0.0615 C   0  0  0  0  0  0  0  0  0  0  0  0
   -2.4724    1.6990    0.5554 C   0  0  0  0  0  0  0  0  0  0  0  0
   -3.0909    0.5952   -0.2522 C   0  0  0  0  0  0  0  0  0  0  0  0
   -3.3933   -0.6128    0.2457 C   0  0  0  0  0  0  0  0  0  0  0  0
   -4.0130   -1.7102   -0.5543 C   0  0  0  0  0  0  0  0  0  0  0  0
    3.6657   -1.1125   -0.7017 H   0  0  0  0  0  0  0  0  0  0  0  0
    2.2787   -2.9757    0.2414 H   0  0  0  0  0  0  0  0  0  0  0  0
    2.5795    1.3978    1.0740 H   0  0  0  0  0  0  0  0  0  0  0  0
    3.2909    2.0517   -0.4024 H   0  0  0  0  0  0  0  0  0  0  0  0
    1.1029    2.9997   -1.0722 H   0  0  0  0  0  0  0  0  0  0  0  0
    1.5948    3.5851    0.5141 H   0  0  0  0  0  0  0  0  0  0  0  0
    0.0330    1.8686    1.6164 H   0  0  0  0  0  0  0  0  0  0  0  0
    0.2883   -2.8410   -1.5323 H   0  0  0  0  0  0  0  0  0  0  0  0
   -1.2292   -2.3538   -0.8697 H   0  0  0  0  0  0  0  0  0  0  0  0
   -1.2416    2.5390   -1.0876 H   0  0  0  0  0  0  0  0  0  0  0  0
   -3.1771    2.5384    0.5890 H   0  0  0  0  0  0  0  0  0  0  0  0
   -2.3119    1.3821    1.5931 H   0  0  0  0  0  0  0  0  0  0  0  0
   -3.3161    0.8108   -1.2943 H   0  0  0  0  0  0  0  0  0  0  0  0
   -3.1851   -0.8311    1.2897 H   0  0  0  0  0  0  0  0  0  0  0  0
   -4.1041   -1.4513   -1.6139 H   0  0  0  0  0  0  0  0  0  0  0  0
   -5.0128   -1.9315   -0.1680 H   0  0  0  0  0  0  0  0  0  0  0  0
   -3.4115   -2.6202   -0.4765 H   0  0  0  0  0  0  0  0  0  0  0  0
  1  5  1  0  0  0  0
  1  6  1  0  0  0  0
  2  7  2  0  0  0  0
  3  9  2  0  0  0  0
  4  9  1  0  0  0  0
  4 24  1  0  0  0  0
  4 25  1  0  0  0  0
  5  6  1  0  0  0  0
  5  7  1  0  0  0  0
  5 17  1  0  0  0  0
  6  9  1  0  0  0  0
  6 18  1  0  0  0  0
  7  8  1  0  0  0  0
  8 10  1  0  0  0  0
  8 19  1  0  0  0  0
  8 20  1  0  0  0  0
 10 11  1  0  0  0  0
 10 21  1  0  0  0  0
 10 22  1  0  0  0  0
 11 12  2  0  0  0  0
 11 23  1  0  0  0  0
 12 13  1  0  0  0  0
 12 26  1  0  0  0  0
 13 14  1  0  0  0  0
 13 27  1  0  0  0  0
 13 28  1  0  0  0  0
 14 15  2  0  0  0  0
 14 29  1  0  0  0  0
 15 16  1  0  0  0  0
 15 30  1  0  0  0  0
 16 31  1  0  0  0  0
 16 32  1  0  0  0  0
 16 33  1  0  0  0  0
M  END
> <DATABASE_ID>
DB01034

> <DATABASE_NAME>
drugbank

> <ORIGINAL_SOURCE>
PUBCHEM

> <ORIGINAL_SOURCE_URL>
https://pubchem.ncbi.nlm.nih.gov/rest/pug/compound/inchikey/GVEZIHKRYBHEFX-NQQPLRFYSA-N/SDF?record_type=3d

> <SMILES>
[H][C@]1(O[C@]1([H])C(=O)CC\C=C\C\C=C\C)C(N)=O

> <INCHI_IDENTIFIER>
InChI=1S/C12H17NO3/c1-2-3-4-5-6-7-8-9(14)10-11(16-10)12(13)15/h2-3,5-6,10-11H,4,7-8H2,1H3,(H2,13,15)/b3-2+,6-5+/t10-,11-/m1/s1

> <INCHI_KEY>
GVEZIHKRYBHEFX-NQQPLRFYSA-N

> <FORMULA>
C12H17NO3

> <MOLECULAR_WEIGHT>
223.272

> <EXACT_MASS>
223.120843411

> <JCHEM_ACCEPTOR_COUNT>
4

> <JCHEM_ATOM_COUNT>
33

> <JCHEM_AVERAGE_POLARIZABILITY>
23.621241708802646

> <JCHEM_BIOAVAILABILITY>
1

> <JCHEM_DONOR_COUNT>
2

> <JCHEM_FORMAL_CHARGE>
0

> <JCHEM_GHOSE_FILTER>
1

> <JCHEM_IUPAC>
(2R,3S)-3-[(4E,7E)-nona-4,7-dienoyl]oxirane-2-carboximidic acid

> <ALOGPS_LOGP>
1.38

> <JCHEM_LOGP>
-0.325631054862003

> <ALOGPS_LOGS>
-2.14

> <JCHEM_MDDR_LIKE_RULE>
0

> <JCHEM_NUMBER_OF_RINGS>
1

> <JCHEM_PHYSIOLOGICAL_CHARGE>
0

> <JCHEM_PKA>
19.91164991318967

> <JCHEM_PKA_STRONGEST_ACIDIC>
-3.3832226265519734

> <JCHEM_PKA_STRONGEST_BASIC>
12.562454821622046

> <JCHEM_POLAR_SURFACE_AREA>
73.68

> <JCHEM_REFRACTIVITY>
73.47930000000001

> <JCHEM_ROTATABLE_BOND_COUNT>
7

> <JCHEM_RULE_OF_FIVE>
1

> <ALOGPS_SOLUBILITY>
1.60e+00 g/l

> <JCHEM_TRADITIONAL_IUPAC>
cerulenin

> <JCHEM_VEBER_RULE>
0

$$$$
2484
  -OEChem-10051719293D

 51 53  0     1  0  0  0  0  0999 V2000
   -0.4864    0.9275   -0.6259 N   0  0  2  0  0  0  0  0  0  0  0  0
    5.6086   -0.6959    0.6535 C   0  0  0  0  0  0  0  0  0  0  0  0
    4.3181   -0.2201    0.0777 C   0  0  0  0  0  0  0  0  0  0  0  0
    6.0535   -2.0447    0.0076 C   0  0  0  0  0  0  0  0  0  0  0  0
    5.4909   -0.9276    2.1921 C   0  0  0  0  0  0  0  0  0  0  0  0
    6.8236    0.2734    0.4709 C   0  0  0  0  0  0  0  0  0  0  0  0
    0.6129    1.1454   -1.5754 C   0  0  0  0  0  0  0  0  0  0  0  0
    1.9141    0.6659   -0.9943 C   0  0  0  0  0  0  0  0  0  0  0  0
    3.1728   -1.0088    0.1871 C   0  0  0  0  0  0  0  0  0  0  0  0
    4.2560    1.0135   -0.5702 C   0  0  0  0  0  0  0  0  0  0  0  0
   -1.7545    1.3133   -1.2005 C   0  0  0  0  0  0  0  0  0  0  0  0
    1.9653   -0.5638   -0.3513 C   0  0  0  0  0  0  0  0  0  0  0  0
    3.0487    1.4586   -1.1086 C   0  0  0  0  0  0  0  0  0  0  0  0
   -2.8758    1.0315   -0.2487 C   0  0  0  0  0  0  0  0  0  0  0  0
   -3.5543   -0.1982   -0.2405 C   0  0  0  0  0  0  0  0  0  0  0  0
   -0.2225    1.6650    0.6166 C   0  0  0  0  0  0  0  0  0  0  0  0
   -4.6058   -0.4022    0.6845 C   0  0  0  0  0  0  0  0  0  0  0  0
   -3.2292    2.0456    0.6421 C   0  0  0  0  0  0  0  0  0  0  0  0
   -3.2122   -1.2299   -1.1299 C   0  0  0  0  0  0  0  0  0  0  0  0
   -4.9478    0.6293    1.5741 C   0  0  0  0  0  0  0  0  0  0  0  0
   -4.2630    1.8448    1.5520 C   0  0  0  0  0  0  0  0  0  0  0  0
   -5.2843   -1.6318    0.6929 C   0  0  0  0  0  0  0  0  0  0  0  0
   -3.8972   -2.4451   -1.1077 C   0  0  0  0  0  0  0  0  0  0  0  0
   -4.9314   -2.6456   -0.1981 C   0  0  0  0  0  0  0  0  0  0  0  0
    7.0164   -2.3809    0.4095 H   0  0  0  0  0  0  0  0  0  0  0  0
    5.3291   -2.8455    0.1925 H   0  0  0  0  0  0  0  0  0  0  0  0
    6.1603   -1.9396   -1.0785 H   0  0  0  0  0  0  0  0  0  0  0  0
    4.7517   -1.6990    2.4343 H   0  0  0  0  0  0  0  0  0  0  0  0
    6.4467   -1.2500    2.6212 H   0  0  0  0  0  0  0  0  0  0  0  0
    5.1865   -0.0061    2.7022 H   0  0  0  0  0  0  0  0  0  0  0  0
    7.0412    0.4495   -0.5891 H   0  0  0  0  0  0  0  0  0  0  0  0
    6.6428    1.2399    0.9557 H   0  0  0  0  0  0  0  0  0  0  0  0
    7.7331   -0.1446    0.9193 H   0  0  0  0  0  0  0  0  0  0  0  0
    0.6776    2.2065   -1.8514 H   0  0  0  0  0  0  0  0  0  0  0  0
    0.4336    0.5792   -2.4984 H   0  0  0  0  0  0  0  0  0  0  0  0
   -1.9276    0.8291   -2.1679 H   0  0  0  0  0  0  0  0  0  0  0  0
   -1.7583    2.3854   -1.4502 H   0  0  0  0  0  0  0  0  0  0  0  0
    3.1935   -1.9747    0.6834 H   0  0  0  0  0  0  0  0  0  0  0  0
    5.1147    1.6659   -0.6839 H   0  0  0  0  0  0  0  0  0  0  0  0
    1.0900   -1.2020   -0.2684 H   0  0  0  0  0  0  0  0  0  0  0  0
    3.0129    2.4207   -1.6119 H   0  0  0  0  0  0  0  0  0  0  0  0
   -0.3014    2.7503    0.4795 H   0  0  0  0  0  0  0  0  0  0  0  0
    0.7694    1.4741    1.0385 H   0  0  0  0  0  0  0  0  0  0  0  0
   -0.8898    1.3483    1.4242 H   0  0  0  0  0  0  0  0  0  0  0  0
   -2.7260    3.0088    0.6319 H   0  0  0  0  0  0  0  0  0  0  0  0
   -2.4048   -1.1428   -1.8501 H   0  0  0  0  0  0  0  0  0  0  0  0
   -5.7534    0.4948    2.2931 H   0  0  0  0  0  0  0  0  0  0  0  0
   -4.5407    2.6359    2.2424 H   0  0  0  0  0  0  0  0  0  0  0  0
   -6.0955   -1.8108    1.3955 H   0  0  0  0  0  0  0  0  0  0  0  0
   -3.6206   -3.2369   -1.7979 H   0  0  0  0  0  0  0  0  0  0  0  0
   -5.4635   -3.5924   -0.1807 H   0  0  0  0  0  0  0  0  0  0  0  0
  1  7  1  0  0  0  0
  1 11  1  0  0  0  0
  1 16  1  0  0  0  0
  2  3  1  0  0  0  0
  2  4  1  0  0  0  0
  2  5  1  0  0  0  0
  2  6  1  0  0  0  0
  3  9  2  0  0  0  0
  3 10  1  0  0  0  0
  4 25  1  0  0  0  0
  4 26  1  0  0  0  0
  4 27  1  0  0  0  0
  5 28  1  0  0  0  0
  5 29  1  0  0  0  0
  5 30  1  0  0  0  0
  6 31  1  0  0  0  0
  6 32  1  0  0  0  0
  6 33  1  0  0  0  0
  7  8  1  0  0  0  0
  7 34  1  0  0  0  0
  7 35  1  0  0  0  0
  8 12  2  0  0  0  0
  8 13  1  0  0  0  0
  9 12  1  0  0  0  0
  9 38  1  0  0  0  0
 10 13  2  0  0  0  0
 10 39  1  0  0  0  0
 11 14  1  0  0  0  0
 11 36  1  0  0  0  0
 11 37  1  0  0  0  0
 12 40  1  0  0  0  0
 13 41  1  0  0  0  0
 14 15  1  0  0  0  0
 14 18  2  0  0  0  0
 15 17  1  0  0  0  0
 15 19  2  0  0  0  0
 16 42  1  0  0  0  0
 16 43  1  0  0  0  0
 16 44  1  0  0  0  0
 17 20  1  0  0  0  0
 17 22  2  0  0  0  0
 18 21  1  0  0  0  0
 18 45  1  0  0  0  0
 19 23  1  0  0  0  0
 19 46  1  0  0  0  0
 20 21  2  0  0  0  0
 20 47  1  0  0  0  0
 21 48  1  0  0  0  0
 22 24  1  0  0  0  0
 22 49  1  0  0  0  0
 23 24  2  0  0  0  0
 23 50  1  0  0  0  0
 24 51  1  0  0  0  0
M  END
> <DATABASE_ID>
DB01091

> <DATABASE_NAME>
drugbank

> <ORIGINAL_SOURCE>
PUBCHEM

> <ORIGINAL_SOURCE_URL>
https://pubchem.ncbi.nlm.nih.gov/rest/pug/compound/inchikey/ABJKWBDEJIDSJZ-UHFFFAOYSA-N/SDF?record_type=3d

> <SMILES>
CN(CC1=CC=C(C=C1)C(C)(C)C)CC1=CC=CC2=CC=CC=C12

> <INCHI_IDENTIFIER>
InChI=1S/C23H27N/c1-23(2,3)21-14-12-18(13-15-21)16-24(4)17-20-10-7-9-19-8-5-6-11-22(19)20/h5-15H,16-17H2,1-4H3

> <INCHI_KEY>
ABJKWBDEJIDSJZ-UHFFFAOYSA-N

> <FORMULA>
C23H27N

> <MOLECULAR_WEIGHT>
317.4672

> <EXACT_MASS>
317.214349869

> <JCHEM_ACCEPTOR_COUNT>
1

> <JCHEM_AVERAGE_POLARIZABILITY>
38.40901664817692

> <JCHEM_BIOAVAILABILITY>
1

> <JCHEM_DONOR_COUNT>
0

> <JCHEM_FORMAL_CHARGE>
0

> <JCHEM_GHOSE_FILTER>
0

> <JCHEM_IUPAC>
[(4-tert-butylphenyl)methyl](methyl)(naphthalen-1-ylmethyl)amine

> <ALOGPS_LOGP>
5.85

> <JCHEM_LOGP>
6.173648727666666

> <ALOGPS_LOGS>
-6.62

> <JCHEM_MDDR_LIKE_RULE>
0

> <JCHEM_NUMBER_OF_RINGS>
3

> <JCHEM_PHYSIOLOGICAL_CHARGE>
1

> <JCHEM_PKA_STRONGEST_BASIC>
9.233430737971924

> <JCHEM_POLAR_SURFACE_AREA>
3.24

> <JCHEM_REFRACTIVITY>
104.32940000000002

> <JCHEM_ROTATABLE_BOND_COUNT>
5

> <JCHEM_RULE_OF_FIVE>
0

> <ALOGPS_SOLUBILITY>
7.56e-05 g/l

> <JCHEM_TRADITIONAL_IUPAC>
butenafine

> <JCHEM_VEBER_RULE>
1

$$$$
3366
  -OEChem-11061913043D

 13 13  0     0  0  0  0  0  0999 V2000
    2.3815    0.9951   -0.0002 F   0  0  0  0  0  0  0  0  0  0  0  0
   -2.7475   -0.4935   -0.0006 O   0  0  0  0  0  0  0  0  0  0  0  0
   -0.5463   -1.0798    0.0006 N   0  0  0  0  0  0  0  0  0  0  0  0
    1.7425   -1.7626   -0.0005 N   0  0  0  0  0  0  0  0  0  0  0  0
   -1.2205    1.2102   -0.0002 N   0  0  0  0  0  0  0  0  0  0  0  0
    0.8002   -0.7730    0.0002 C   0  0  0  0  0  0  0  0  0  0  0  0
    1.1228    0.5254    0.0002 C   0  0  0  0  0  0  0  0  0  0  0  0
   -1.5700   -0.1306    0.0004 C   0  0  0  0  0  0  0  0  0  0  0  0
    0.0374    1.5088    0.0000 C   0  0  0  0  0  0  0  0  0  0  0  0
   -0.7956   -2.0645    0.0004 H   0  0  0  0  0  0  0  0  0  0  0  0
    0.3457    2.5660   -0.0005 H   0  0  0  0  0  0  0  0  0  0  0  0
    2.7274   -1.5286   -0.0005 H   0  0  0  0  0  0  0  0  0  0  0  0
    1.4439   -2.7295   -0.0001 H   0  0  0  0  0  0  0  0  0  0  0  0
  1  7  1  0  0  0  0
  2  8  2  0  0  0  0
  3  6  1  0  0  0  0
  3  8  1  0  0  0  0
  3 10  1  0  0  0  0
  4  6  1  0  0  0  0
  4 12  1  0  0  0  0
  4 13  1  0  0  0  0
  5  8  1  0  0  0  0
  5  9  2  0  0  0  0
  6  7  2  0  0  0  0
  7  9  1  0  0  0  0
  9 11  1  0  0  0  0
M  END
> <DATABASE_ID>
DB01099

> <DATABASE_NAME>
drugbank

> <ORIGINAL_SOURCE>
PUBCHEM

> <ORIGINAL_SOURCE_URL>
https://pubchem.ncbi.nlm.nih.gov/rest/pug/compound/inchikey/XRECTZIEBJDKEO-UHFFFAOYSA-N/SDF?record_type=3d

> <SMILES>
NC1=NC(=O)NC=C1F

> <INCHI_IDENTIFIER>
InChI=1S/C4H4FN3O/c5-2-1-7-4(9)8-3(2)6/h1H,(H3,6,7,8,9)

> <INCHI_KEY>
XRECTZIEBJDKEO-UHFFFAOYSA-N

> <FORMULA>
C4H4FN3O

> <MOLECULAR_WEIGHT>
129.0925

> <EXACT_MASS>
129.03383997

> <JCHEM_ACCEPTOR_COUNT>
3

> <JCHEM_ATOM_COUNT>
13

> <JCHEM_AVERAGE_POLARIZABILITY>
10.03910804099278

> <JCHEM_BIOAVAILABILITY>
1

> <JCHEM_DONOR_COUNT>
2

> <JCHEM_FORMAL_CHARGE>
0

> <JCHEM_GHOSE_FILTER>
0

> <JCHEM_IUPAC>
4-amino-5-fluoro-1,2-dihydropyrimidin-2-one

> <ALOGPS_LOGP>
-0.69

> <JCHEM_LOGP>
-1.0381232326666665

> <ALOGPS_LOGS>
-1.78

> <JCHEM_MDDR_LIKE_RULE>
0

> <JCHEM_NUMBER_OF_RINGS>
1

> <JCHEM_PHYSIOLOGICAL_CHARGE>
0

> <JCHEM_PKA>
19.332576580038925

> <JCHEM_PKA_STRONGEST_ACIDIC>
8.308349974367351

> <JCHEM_PKA_STRONGEST_BASIC>
1.7836182968140246

> <JCHEM_POLAR_SURFACE_AREA>
67.48

> <JCHEM_REFRACTIVITY>
28.1514

> <JCHEM_ROTATABLE_BOND_COUNT>
0

> <JCHEM_RULE_OF_FIVE>
1

> <ALOGPS_SOLUBILITY>
2.14e+00 g/l

> <JCHEM_TRADITIONAL_IUPAC>
(2R,3R,5S)-5-(4-amino-5-fluoro-2-oxopyrimidin-1-yl)-2-(hydroxymethyl)-1,3-oxathiolan-3-ium-3-olate

> <JCHEM_VEBER_RULE>
0

$$$$
4189
  -OEChem-10051719293D

 39 41  0     1  0  0  0  0  0999 V2000
   -2.6934    0.0757   -2.6928 Cl  0  0  0  0  0  0  0  0  0  0  0  0
   -4.7330    3.8524    0.5550 Cl  0  0  0  0  0  0  0  0  0  0  0  0
    1.0397    2.7721    1.1594 Cl  0  0  0  0  0  0  0  0  0  0  0  0
    6.2875    1.9490    0.2919 Cl  0  0  0  0  0  0  0  0  0  0  0  0
    0.1607   -0.5234    0.0470 O   0  0  0  0  0  0  0  0  0  0  0  0
   -0.7125   -3.2719    0.5493 N   0  0  0  0  0  0  0  0  0  0  0  0
   -0.0591   -5.2241   -0.2443 N   0  0  0  0  0  0  0  0  0  0  0  0
   -1.1786   -0.9279   -0.2031 C   0  0  1  0  0  0  0  0  0  0  0  0
   -1.5337   -2.0832    0.7439 C   0  0  0  0  0  0  0  0  0  0  0  0
   -2.0817    0.2743   -0.0443 C   0  0  0  0  0  0  0  0  0  0  0  0
    0.5777    0.4890   -0.8592 C   0  0  0  0  0  0  0  0  0  0  0  0
   -2.7934    0.7806   -1.1204 C   0  0  0  0  0  0  0  0  0  0  0  0
   -2.1726    0.8509    1.2136 C   0  0  0  0  0  0  0  0  0  0  0  0
    1.9885    0.8755   -0.5519 C   0  0  0  0  0  0  0  0  0  0  0  0
    0.4597   -3.5386    1.1794 C   0  0  0  0  0  0  0  0  0  0  0  0
   -0.9922   -4.2995   -0.2935 C   0  0  0  0  0  0  0  0  0  0  0  0
   -3.6166    1.8914   -0.9347 C   0  0  0  0  0  0  0  0  0  0  0  0
   -2.9957    1.9616    1.3991 C   0  0  0  0  0  0  0  0  0  0  0  0
   -3.7177    2.4818    0.3250 C   0  0  0  0  0  0  0  0  0  0  0  0
    0.8487   -4.7561    0.6725 C   0  0  0  0  0  0  0  0  0  0  0  0
    2.2878    1.8976    0.3491 C   0  0  0  0  0  0  0  0  0  0  0  0
    3.0183    0.1856   -1.1914 C   0  0  0  0  0  0  0  0  0  0  0  0
    3.6172    2.2297    0.6101 C   0  0  0  0  0  0  0  0  0  0  0  0
    4.3475    0.5178   -0.9304 C   0  0  0  0  0  0  0  0  0  0  0  0
    4.6470    1.5398   -0.0295 C   0  0  0  0  0  0  0  0  0  0  0  0
   -1.2004   -1.3444   -1.2143 H   0  0  0  0  0  0  0  0  0  0  0  0
   -1.4001   -1.8021    1.7956 H   0  0  0  0  0  0  0  0  0  0  0  0
   -2.5793   -2.3889    0.6146 H   0  0  0  0  0  0  0  0  0  0  0  0
   -0.0547    1.3805   -0.8478 H   0  0  0  0  0  0  0  0  0  0  0  0
    0.5261    0.0965   -1.8839 H   0  0  0  0  0  0  0  0  0  0  0  0
   -1.6088    0.4712    2.0605 H   0  0  0  0  0  0  0  0  0  0  0  0
    0.9074   -2.8736    1.9048 H   0  0  0  0  0  0  0  0  0  0  0  0
   -1.8757   -4.3286   -0.9166 H   0  0  0  0  0  0  0  0  0  0  0  0
   -4.1804    2.2986   -1.7714 H   0  0  0  0  0  0  0  0  0  0  0  0
   -3.0619    2.4136    2.3854 H   0  0  0  0  0  0  0  0  0  0  0  0
    1.7369   -5.3188    0.9202 H   0  0  0  0  0  0  0  0  0  0  0  0
    2.8012   -0.6155   -1.8933 H   0  0  0  0  0  0  0  0  0  0  0  0
    3.8527    3.0265    1.3125 H   0  0  0  0  0  0  0  0  0  0  0  0
    5.1397   -0.0289   -1.4355 H   0  0  0  0  0  0  0  0  0  0  0  0
  1 12  1  0  0  0  0
  2 19  1  0  0  0  0
  3 21  1  0  0  0  0
  4 25  1  0  0  0  0
  5  8  1  0  0  0  0
  5 11  1  0  0  0  0
  6  9  1  0  0  0  0
  6 15  1  0  0  0  0
  6 16  1  0  0  0  0
  7 16  2  0  0  0  0
  7 20  1  0  0  0  0
  8  9  1  0  0  0  0
  8 10  1  0  0  0  0
  8 26  1  0  0  0  0
  9 27  1  0  0  0  0
  9 28  1  0  0  0  0
 10 12  2  0  0  0  0
 10 13  1  0  0  0  0
 11 14  1  0  0  0  0
 11 29  1  0  0  0  0
 11 30  1  0  0  0  0
 12 17  1  0  0  0  0
 13 18  2  0  0  0  0
 13 31  1  0  0  0  0
 14 21  2  0  0  0  0
 14 22  1  0  0  0  0
 15 20  2  0  0  0  0
 15 32  1  0  0  0  0
 16 33  1  0  0  0  0
 17 19  2  0  0  0  0
 17 34  1  0  0  0  0
 18 19  1  0  0  0  0
 18 35  1  0  0  0  0
 20 36  1  0  0  0  0
 21 23  1  0  0  0  0
 22 24  2  0  0  0  0
 22 37  1  0  0  0  0
 23 25  2  0  0  0  0
 23 38  1  0  0  0  0
 24 25  1  0  0  0  0
 24 39  1  0  0  0  0
M  END
> <DATABASE_ID>
DB01110

> <DATABASE_NAME>
drugbank

> <ORIGINAL_SOURCE>
PUBCHEM

> <ORIGINAL_SOURCE_URL>
https://pubchem.ncbi.nlm.nih.gov/rest/pug/compound/inchikey/BYBLEWFAAKGYCD-UHFFFAOYSA-N/SDF?record_type=3d

> <SMILES>
ClC1=CC(Cl)=C(COC(CN2C=CN=C2)C2=C(Cl)C=C(Cl)C=C2)C=C1

> <INCHI_IDENTIFIER>
InChI=1S/C18H14Cl4N2O/c19-13-2-1-12(16(21)7-13)10-25-18(9-24-6-5-23-11-24)15-4-3-14(20)8-17(15)22/h1-8,11,18H,9-10H2

> <INCHI_KEY>
BYBLEWFAAKGYCD-UHFFFAOYSA-N

> <FORMULA>
C18H14Cl4N2O

> <MOLECULAR_WEIGHT>
416.129

> <EXACT_MASS>
413.986023908

> <JCHEM_ACCEPTOR_COUNT>
2

> <JCHEM_AVERAGE_POLARIZABILITY>
39.54459918917317

> <JCHEM_BIOAVAILABILITY>
1

> <JCHEM_DONOR_COUNT>
0

> <JCHEM_FORMAL_CHARGE>
0

> <JCHEM_GHOSE_FILTER>
0

> <JCHEM_IUPAC>
1-[2-(2,4-dichlorophenyl)-2-[(2,4-dichlorophenyl)methoxy]ethyl]-1H-imidazole

> <ALOGPS_LOGP>
5.86

> <JCHEM_LOGP>
5.956368360333332

> <ALOGPS_LOGS>
-5.74

> <JCHEM_MDDR_LIKE_RULE>
1

> <JCHEM_NUMBER_OF_RINGS>
3

> <JCHEM_PHYSIOLOGICAL_CHARGE>
0

> <JCHEM_PKA_STRONGEST_BASIC>
6.767291901565906

> <JCHEM_POLAR_SURFACE_AREA>
27.05

> <JCHEM_REFRACTIVITY>
103.06760000000001

> <JCHEM_ROTATABLE_BOND_COUNT>
6

> <JCHEM_RULE_OF_FIVE>
0

> <ALOGPS_SOLUBILITY>
7.63e-04 g/l

> <JCHEM_TRADITIONAL_IUPAC>
miconazole

> <JCHEM_VEBER_RULE>
1

$$$$
3198
  -OEChem-10051719303D

 39 41  0     1  0  0  0  0  0999 V2000
    2.6426   -0.1559   -2.6541 Cl  0  0  0  0  0  0  0  0  0  0  0  0
    4.8149   -3.7797    0.6805 Cl  0  0  0  0  0  0  0  0  0  0  0  0
   -6.2144   -2.3560    0.4727 Cl  0  0  0  0  0  0  0  0  0  0  0  0
   -0.2235    0.4157    0.0783 O   0  0  0  0  0  0  0  0  0  0  0  0
    0.5577    3.2036    0.5094 N   0  0  0  0  0  0  0  0  0  0  0  0
   -0.1627    5.1123   -0.3307 N   0  0  0  0  0  0  0  0  0  0  0  0
    1.1005    0.8583   -0.1856 C   0  0  1  0  0  0  0  0  0  0  0  0
    1.4187    2.0481    0.7311 C   0  0  0  0  0  0  0  0  0  0  0  0
    2.0438   -0.3085    0.0002 C   0  0  0  0  0  0  0  0  0  0  0  0
   -0.6078   -0.6331   -0.8021 C   0  0  0  0  0  0  0  0  0  0  0  0
    2.7697   -0.8175   -1.0650 C   0  0  0  0  0  0  0  0  0  0  0  0
    2.1567   -0.8502    1.2718 C   0  0  0  0  0  0  0  0  0  0  0  0
   -2.0011   -1.0607   -0.4846 C   0  0  0  0  0  0  0  0  0  0  0  0
   -0.6214    3.4465    1.1363 C   0  0  0  0  0  0  0  0  0  0  0  0
    0.8009    4.2185   -0.3596 C   0  0  0  0  0  0  0  0  0  0  0  0
    3.6301   -1.8951   -0.8543 C   0  0  0  0  0  0  0  0  0  0  0  0
    3.0170   -1.9276    1.4825 C   0  0  0  0  0  0  0  0  0  0  0  0
    3.7536   -2.4501    0.4195 C   0  0  0  0  0  0  0  0  0  0  0  0
   -1.0522    4.6373    0.6002 C   0  0  0  0  0  0  0  0  0  0  0  0
   -2.2243   -2.0753    0.4460 C   0  0  0  0  0  0  0  0  0  0  0  0
   -3.0808   -0.4464   -1.1191 C   0  0  0  0  0  0  0  0  0  0  0  0
   -3.5271   -2.4759    0.7421 C   0  0  0  0  0  0  0  0  0  0  0  0
   -4.3838   -0.8468   -0.8230 C   0  0  0  0  0  0  0  0  0  0  0  0
   -4.6070   -1.8616    0.1077 C   0  0  0  0  0  0  0  0  0  0  0  0
    1.1061    1.2500   -1.2070 H   0  0  0  0  0  0  0  0  0  0  0  0
    1.2969    1.7893    1.7899 H   0  0  0  0  0  0  0  0  0  0  0  0
    2.4530    2.3854    0.5909 H   0  0  0  0  0  0  0  0  0  0  0  0
   -0.5537   -0.2864   -1.8421 H   0  0  0  0  0  0  0  0  0  0  0  0
    0.0357   -1.5151   -0.7168 H   0  0  0  0  0  0  0  0  0  0  0  0
    1.5820   -0.4688    2.1105 H   0  0  0  0  0  0  0  0  0  0  0  0
   -1.0450    2.7854    1.8796 H   0  0  0  0  0  0  0  0  0  0  0  0
    1.6816    4.2616   -0.9859 H   0  0  0  0  0  0  0  0  0  0  0  0
    4.2055   -2.3039   -1.6823 H   0  0  0  0  0  0  0  0  0  0  0  0
    3.1008   -2.3522    2.4796 H   0  0  0  0  0  0  0  0  0  0  0  0
   -1.9583    5.1760    0.8365 H   0  0  0  0  0  0  0  0  0  0  0  0
   -1.3916   -2.5599    0.9490 H   0  0  0  0  0  0  0  0  0  0  0  0
   -2.9199    0.3471   -1.8442 H   0  0  0  0  0  0  0  0  0  0  0  0
   -3.6860   -3.2676    1.4698 H   0  0  0  0  0  0  0  0  0  0  0  0
   -5.2154   -0.3588   -1.3247 H   0  0  0  0  0  0  0  0  0  0  0  0
  1 11  1  0  0  0  0
  2 18  1  0  0  0  0
  3 24  1  0  0  0  0
  4  7  1  0  0  0  0
  4 10  1  0  0  0  0
  5  8  1  0  0  0  0
  5 14  1  0  0  0  0
  5 15  1  0  0  0  0
  6 15  2  0  0  0  0
  6 19  1  0  0  0  0
  7  8  1  0  0  0  0
  7  9  1  0  0  0  0
  7 25  1  0  0  0  0
  8 26  1  0  0  0  0
  8 27  1  0  0  0  0
  9 11  2  0  0  0  0
  9 12  1  0  0  0  0
 10 13  1  0  0  0  0
 10 28  1  0  0  0  0
 10 29  1  0  0  0  0
 11 16  1  0  0  0  0
 12 17  2  0  0  0  0
 12 30  1  0  0  0  0
 13 20  2  0  0  0  0
 13 21  1  0  0  0  0
 14 19  2  0  0  0  0
 14 31  1  0  0  0  0
 15 32  1  0  0  0  0
 16 18  2  0  0  0  0
 16 33  1  0  0  0  0
 17 18  1  0  0  0  0
 17 34  1  0  0  0  0
 19 35  1  0  0  0  0
 20 22  1  0  0  0  0
 20 36  1  0  0  0  0
 21 23  2  0  0  0  0
 21 37  1  0  0  0  0
 22 24  2  0  0  0  0
 22 38  1  0  0  0  0
 23 24  1  0  0  0  0
 23 39  1  0  0  0  0
M  END
> <DATABASE_ID>
DB01127

> <DATABASE_NAME>
drugbank

> <ORIGINAL_SOURCE>
PUBCHEM

> <ORIGINAL_SOURCE_URL>
https://pubchem.ncbi.nlm.nih.gov/rest/pug/compound/inchikey/LEZWWPYKPKIXLL-UHFFFAOYSA-N/SDF?record_type=3d

> <SMILES>
ClC1=CC=C(COC(CN2C=CN=C2)C2=C(Cl)C=C(Cl)C=C2)C=C1

> <INCHI_IDENTIFIER>
InChI=1S/C18H15Cl3N2O/c19-14-3-1-13(2-4-14)11-24-18(10-23-8-7-22-12-23)16-6-5-15(20)9-17(16)21/h1-9,12,18H,10-11H2

> <INCHI_KEY>
LEZWWPYKPKIXLL-UHFFFAOYSA-N

> <FORMULA>
C18H15Cl3N2O

> <MOLECULAR_WEIGHT>
381.684

> <EXACT_MASS>
380.024996233

> <JCHEM_ACCEPTOR_COUNT>
2

> <JCHEM_AVERAGE_POLARIZABILITY>
37.37246253608513

> <JCHEM_BIOAVAILABILITY>
1

> <JCHEM_DONOR_COUNT>
0

> <JCHEM_FORMAL_CHARGE>
0

> <JCHEM_GHOSE_FILTER>
1

> <JCHEM_IUPAC>
1-{2-[(4-chlorophenyl)methoxy]-2-(2,4-dichlorophenyl)ethyl}-1H-imidazole

> <ALOGPS_LOGP>
4.67

> <JCHEM_LOGP>
5.352323684

> <ALOGPS_LOGS>
-5.41

> <JCHEM_MDDR_LIKE_RULE>
1

> <JCHEM_NUMBER_OF_RINGS>
3

> <JCHEM_PHYSIOLOGICAL_CHARGE>
0

> <JCHEM_PKA_STRONGEST_BASIC>
6.767291901775012

> <JCHEM_POLAR_SURFACE_AREA>
27.05

> <JCHEM_REFRACTIVITY>
98.26280000000001

> <JCHEM_ROTATABLE_BOND_COUNT>
6

> <JCHEM_RULE_OF_FIVE>
0

> <ALOGPS_SOLUBILITY>
1.48e-03 g/l

> <JCHEM_TRADITIONAL_IUPAC>
econazole

> <JCHEM_VEBER_RULE>
1

$$$$

  Mrv0541 02231215162D          

 89 95  0  0  0  0            999 V2000
    0.8659   -1.4342    0.0000 N   0  0  0  0  0  0  0  0  0  0  0  0
    4.0760   -4.0167    0.0000 N   0  0  0  0  0  0  0  0  0  0  0  0
    1.2357   -0.6982    0.0000 C   0  0  2  0  0  0  0  0  0  0  0  0
    1.2388   -2.1659    0.0000 C   0  0  0  0  0  0  0  0  0  0  0  0
    4.0806   -3.1867    0.0000 C   0  0  0  0  0  0  0  0  0  0  0  0
    1.1049   -5.0253    0.0000 C   0  0  2  0  0  0  0  0  0  0  0  0
    0.7917   -2.8564    0.0000 C   0  0  1  0  0  0  0  0  0  0  0  0
    1.9520   -0.2891    0.0000 C   0  0  0  0  0  0  0  0  0  0  0  0
    4.7961   -2.7818    0.0000 C   0  0  1  0  0  0  0  0  0  0  0  0
    1.1716   -3.5976    0.0000 N   0  0  0  0  0  0  0  0  0  0  0  0
    2.0099   -4.7885    0.0000 N   0  0  0  0  0  0  0  0  0  0  0  0
    4.8008   -1.9520    0.0000 N   0  0  0  0  0  0  0  0  0  0  0  0
    0.7245   -4.2882    0.0000 C   0  0  0  0  0  0  0  0  0  0  0  0
    2.6645   -0.7017    0.0000 N   0  0  0  0  0  0  0  0  0  0  0  0
   -2.6965   -8.2933    0.0000 S   0  0  0  0  0  0  0  0  0  0  0  0
    2.6254   -4.2375    0.0000 C   0  0  0  0  0  0  0  0  0  0  0  0
    3.4080   -4.4964    0.0000 C   0  0  2  0  0  0  0  0  0  0  0  0
    5.5211   -1.5435    0.0000 C   0  0  0  0  0  0  0  0  0  0  0  0
    9.9037    1.7199    0.0000 N   0  0  0  0  0  0  0  0  0  0  0  0
    0.7711   -5.7753    0.0000 C   0  0  1  0  0  0  0  0  0  0  0  0
   10.5689    0.5556    0.0000 C   0  0  0  0  0  0  0  0  0  0  0  0
    0.0410   -1.3965    0.0000 C   0  0  0  0  0  0  0  0  0  0  0  0
   11.1219    1.1666    0.0000 C   0  0  0  0  0  0  0  0  0  0  0  0
    9.8160    0.8984    0.0000 C   0  0  0  0  0  0  0  0  0  0  0  0
   10.7135    1.8869    0.0000 O   0  0  0  0  0  0  0  0  0  0  0  0
    0.6504   -0.1152    0.0000 C   0  0  2  0  0  0  0  0  0  0  0  0
    5.5204   -0.7213    0.0000 C   0  0  1  0  0  0  0  0  0  0  0  0
   -1.5434   -7.4535    0.0000 C   0  0  0  0  0  0  0  0  0  0  0  0
    6.9480   -0.7330    0.0000 C   0  0  0  0  0  0  0  0  0  0  0  0
    3.3848   -0.2933    0.0000 C   0  0  1  0  0  0  0  0  0  0  0  0
   -0.0868   -0.4958    0.0000 C   0  0  1  0  0  0  0  0  0  0  0  0
    6.2406   -0.3128    0.0000 N   0  0  0  0  0  0  0  0  0  0  0  0
   -0.0290   -2.8195    0.0000 C   0  0  1  0  0  0  0  0  0  0  0  0
   -2.3654   -7.5344    0.0000 O   0  0  0  0  0  0  0  0  0  0  0  0
   -0.4069   -2.0913    0.0000 C   0  0  0  0  0  0  0  0  0  0  0  0
   -0.0481   -5.8650    0.0000 C   0  0  2  0  0  0  0  0  0  0  0  0
   -0.3910   -6.6179    0.0000 C   0  0  0  0  0  0  0  0  0  0  0  0
    4.8124   -0.3051    0.0000 C   0  0  0  0  0  0  0  0  0  0  0  0
   -1.2046   -6.7001    0.0000 C   0  0  0  0  0  0  0  0  0  0  0  0
    4.7389   -4.5061    0.0000 C   0  0  0  0  0  0  0  0  0  0  0  0
    3.6590   -5.2811    0.0000 C   0  0  0  0  0  0  0  0  0  0  0  0
    4.0922   -0.7135    0.0000 C   0  0  1  0  0  0  0  0  0  0  0  0
   -1.2358   -2.0530    0.0000 C   0  0  0  0  0  0  0  0  0  0  0  0
    3.3686   -2.7700    0.0000 O   0  0  0  0  0  0  0  0  0  0  0  0
    2.0679   -2.2043    0.0000 O   0  0  0  0  0  0  0  0  0  0  0  0
   -1.9429   -8.6321    0.0000 O   0  0  0  0  0  0  0  0  0  0  0  0
   -3.4554   -7.9622    0.0000 O   0  0  0  0  0  0  0  0  0  0  0  0
   11.9393    1.0795    0.0000 C   0  0  0  0  0  0  0  0  0  0  0  0
    7.6682   -0.3246    0.0000 C   0  0  0  0  0  0  0  0  0  0  0  0
    1.9559    0.5368    0.0000 O   0  0  0  0  0  0  0  0  0  0  0  0
    9.0957    0.4900    0.0000 C   0  0  0  0  0  0  0  0  0  0  0  0
   -1.0554   -8.1227    0.0000 C   0  0  0  0  0  0  0  0  0  0  0  0
   -0.0963   -4.2511    0.0000 O   0  0  0  0  0  0  0  0  0  0  0  0
    2.4585   -3.4277    0.0000 O   0  0  0  0  0  0  0  0  0  0  0  0
    6.2283   -1.9637    0.0000 O   0  0  0  0  0  0  0  0  0  0  0  0
    6.9480   -1.5595    0.0000 O   0  0  0  0  0  0  0  0  0  0  0  0
    5.5082   -3.1986    0.0000 C   0  0  2  0  0  0  0  0  0  0  0  0
    4.4800   -5.2887    0.0000 C   0  0  1  0  0  0  0  0  0  0  0  0
    0.1023   -7.2795    0.0000 C   0  0  0  0  0  0  0  0  0  0  0  0
   -3.0381   -9.0379    0.0000 O   0  0  0  0  0  0  0  0  0  0  0  0
   -1.6747   -2.7447    0.0000 O   0  0  0  0  0  0  0  0  0  0  0  0
   -0.2322   -8.0336    0.0000 C   0  0  0  0  0  0  0  0  0  0  0  0
    7.6674    0.4978    0.0000 C   0  0  0  0  0  0  0  0  0  0  0  0
    8.3761   -0.7408    0.0000 C   0  0  0  0  0  0  0  0  0  0  0  0
    9.0963   -0.3323    0.0000 C   0  0  0  0  0  0  0  0  0  0  0  0
    8.3837    0.9067    0.0000 C   0  0  0  0  0  0  0  0  0  0  0  0
   12.4238    1.7391    0.0000 C   0  0  0  0  0  0  0  0  0  0  0  0
   12.2701    0.3206    0.0000 C   0  0  0  0  0  0  0  0  0  0  0  0
    1.2547   -6.4438    0.0000 O   0  0  0  0  0  0  0  0  0  0  0  0
   -1.6129   -1.3206    0.0000 N   0  0  0  0  0  0  0  0  0  0  0  0
    0.7752    0.7005    0.0000 O   0  0  0  0  0  0  0  0  0  0  0  0
    3.3842    0.5291    0.0000 O   0  0  0  0  0  0  0  0  0  0  0  0
   -0.5318   -5.1965    0.0000 O   0  0  0  0  0  0  0  0  0  0  0  0
   -0.4734   -3.5188    0.0000 O   0  0  0  0  0  0  0  0  0  0  0  0
   13.5803    0.8917    0.0000 C   0  0  0  0  0  0  0  0  0  0  0  0
    4.0882   -1.5393    0.0000 O   0  0  0  0  0  0  0  0  0  0  0  0
   13.2453    1.6514    0.0000 C   0  0  0  0  0  0  0  0  0  0  0  0
   13.0903    0.2246    0.0000 C   0  0  0  0  0  0  0  0  0  0  0  0
   -1.3936   -8.8721    0.0000 O   0  0  0  0  0  0  0  0  0  0  0  0
    4.9590   -5.9607    0.0000 O   0  0  0  0  0  0  0  0  0  0  0  0
    6.2244   -2.7896    0.0000 O   0  0  0  0  0  0  0  0  0  0  0  0
   -0.8175   -0.1184    0.0000 C   0  0  0  0  0  0  0  0  0  0  0  0
   14.4017    0.8041    0.0000 O   0  0  0  0  0  0  0  0  0  0  0  0
    5.5048   -4.0204    0.0000 C   0  0  0  0  0  0  0  0  0  0  0  0
   14.7332    0.0492    0.0000 C   0  0  0  0  0  0  0  0  0  0  0  0
   14.2480   -0.6146    0.0000 C   0  0  0  0  0  0  0  0  0  0  0  0
   14.0929   -2.0412    0.0000 C   0  0  0  0  0  0  0  0  0  0  0  0
   14.5787   -1.3735    0.0000 C   0  0  0  0  0  0  0  0  0  0  0  0
   14.4249   -2.7919    0.0000 C   0  0  0  0  0  0  0  0  0  0  0  0
  2 17  1  0  0  0  0
  3  1  1  0  0  0  0
  4  1  1  0  0  0  0
  5  2  1  0  0  0  0
  6 13  1  1  0  0  0
  7  4  1  1  0  0  0
  3  8  1  1  0  0  0
  9 12  1  0  0  0  0
 10  7  1  0  0  0  0
 11  6  1  0  0  0  0
 12 18  1  0  0  0  0
 13 10  1  0  0  0  0
 14  8  1  0  0  0  0
 15 34  1  0  0  0  0
 16 11  1  0  0  0  0
 17 16  1  1  0  0  0
 18 27  1  0  0  0  0
 19 24  2  0  0  0  0
 20  6  1  0  0  0  0
 21 24  1  0  0  0  0
 22  1  1  0  0  0  0
 23 21  2  0  0  0  0
 24 51  1  0  0  0  0
 25 19  1  0  0  0  0
 26  3  1  0  0  0  0
 27 38  1  6  0  0  0
 28 39  1  0  0  0  0
 29 32  1  0  0  0  0
 30 14  1  0  0  0  0
 31 22  1  0  0  0  0
 32 27  1  0  0  0  0
 33  7  1  0  0  0  0
 34 28  1  0  0  0  0
 35 33  1  0  0  0  0
 36 20  1  0  0  0  0
 37 36  1  0  0  0  0
 38 42  1  0  0  0  0
 39 37  2  0  0  0  0
 40  2  1  0  0  0  0
 41 17  1  0  0  0  0
 42 30  1  0  0  0  0
 43 35  1  0  0  0  0
 44  5  2  0  0  0  0
 45  4  2  0  0  0  0
 46 15  2  0  0  0  0
 47 15  2  0  0  0  0
 48 23  1  0  0  0  0
 49 29  1  0  0  0  0
 50  8  2  0  0  0  0
 51 65  2  0  0  0  0
 52 62  1  0  0  0  0
 53 13  2  0  0  0  0
 54 16  2  0  0  0  0
 55 18  2  0  0  0  0
 56 29  2  0  0  0  0
 57  9  1  0  0  0  0
 58 41  1  0  0  0  0
 59 37  1  0  0  0  0
 60 15  1  0  0  0  0
 61 43  2  0  0  0  0
 62 59  2  0  0  0  0
 63 49  1  0  0  0  0
 64 49  2  0  0  0  0
 65 64  1  0  0  0  0
 66 63  2  0  0  0  0
 67 48  1  0  0  0  0
 68 48  2  0  0  0  0
 20 69  1  6  0  0  0
 70 43  1  0  0  0  0
 26 71  1  6  0  0  0
 30 72  1  6  0  0  0
 36 73  1  6  0  0  0
 33 74  1  6  0  0  0
 75 78  2  0  0  0  0
 42 76  1  1  0  0  0
 77 67  2  0  0  0  0
 78 68  1  0  0  0  0
 79 52  1  0  0  0  0
 58 80  1  6  0  0  0
 57 81  1  6  0  0  0
 31 82  1  6  0  0  0
 83 75  1  0  0  0  0
 84 57  1  0  0  0  0
 85 83  1  0  0  0  0
 86 85  1  0  0  0  0
 87 88  1  0  0  0  0
 88 86  1  0  0  0  0
 89 87  1  0  0  0  0
 26 31  1  0  0  0  0
 58 40  1  0  0  0  0
  9  5  1  1  0  0  0
 28 52  2  0  0  0  0
 66 51  1  0  0  0  0
 23 25  1  0  0  0  0
 77 75  1  0  0  0  0
M  END
> <DATABASE_ID>
DB01141

> <DATABASE_NAME>
drugbank

> <SMILES>
CCCCCOC1=CC=C(C=C1)C1=CC(=NO1)C1=CC=C(C=C1)C(=O)N[C@H]1C[C@@H](O)[C@@H](O)NC(=O)[C@@H]2[C@@H](O)[C@@H](C)CN2C(=O)[C@@H](NC(=O)[C@@H](NC(=O)[C@@H]2C[C@@H](O)CN2C(=O)[C@@H](NC1=O)[C@@H](C)O)[C@H](O)[C@@H](O)C1=CC(OS(O)(=O)=O)=C(O)C=C1)[C@H](O)CC(N)=O

> <INCHI_IDENTIFIER>
InChI=1S/C56H71N9O23S/c1-4-5-6-17-86-32-14-11-28(12-15-32)39-21-33(63-87-39)27-7-9-29(10-8-27)49(75)58-34-20-38(70)52(78)62-54(80)45-46(72)25(2)23-65(45)56(82)43(37(69)22-41(57)71)60-53(79)44(48(74)47(73)30-13-16-36(68)40(18-30)88-89(83,84)85)61-51(77)35-19-31(67)24-64(35)55(81)42(26(3)66)59-50(34)76/h7-16,18,21,25-26,31,34-35,37-38,42-48,52,66-70,72-74,78H,4-6,17,19-20,22-24H2,1-3H3,(H2,57,71)(H,58,75)(H,59,76)(H,60,79)(H,61,77)(H,62,80)(H,83,84,85)/t25-,26+,31+,34-,35-,37+,38+,42-,43-,44-,45-,46-,47-,48-,52+/m0/s1

> <INCHI_KEY>
PIEUQSKUWLMALL-YABMTYFHSA-N

> <FORMULA>
C56H71N9O23S

> <MOLECULAR_WEIGHT>
1270.274

> <EXACT_MASS>
1269.438350313

> <JCHEM_ACCEPTOR_COUNT>
22

> <JCHEM_AVERAGE_POLARIZABILITY>
128.21954434215644

> <JCHEM_BIOAVAILABILITY>
0

> <JCHEM_DONOR_COUNT>
16

> <JCHEM_FORMAL_CHARGE>
0

> <JCHEM_GHOSE_FILTER>
0

> <JCHEM_IUPAC>
{5-[(1S,2S)-2-[(3S,6S,9S,11R,15S,18S,20R,21R,24S,25S,26S)-3-[(1R)-2-carbamoyl-1-hydroxyethyl]-11,20,21,25-tetrahydroxy-15-[(1R)-1-hydroxyethyl]-26-methyl-2,5,8,14,17,23-hexaoxo-18-(4-{5-[4-(pentyloxy)phenyl]-1,2-oxazol-3-yl}benzamido)-1,4,7,13,16,22-hexaazatricyclo[22.3.0.0⁹,¹³]heptacosan-6-yl]-1,2-dihydroxyethyl]-2-hydroxyphenyl}oxidanesulfonic acid

> <ALOGPS_LOGP>
0.67

> <JCHEM_LOGP>
-6.338448322891082

> <ALOGPS_LOGS>
-3.77

> <JCHEM_MDDR_LIKE_RULE>
1

> <JCHEM_NUMBER_OF_RINGS>
7

> <JCHEM_PHYSIOLOGICAL_CHARGE>
-1

> <JCHEM_PKA>
10.049824673608214

> <JCHEM_PKA_STRONGEST_ACIDIC>
-2.188257305264612

> <JCHEM_PKA_STRONGEST_BASIC>
-3.558083874308431

> <JCHEM_POLAR_SURFACE_AREA>
510.1400000000001

> <JCHEM_REFRACTIVITY>
303.07099999999997

> <JCHEM_ROTATABLE_BOND_COUNT>
18

> <JCHEM_RULE_OF_FIVE>
0

> <ALOGPS_SOLUBILITY>
2.18e-01 g/l

> <JCHEM_TRADITIONAL_IUPAC>
micafungin

> <JCHEM_VEBER_RULE>
0

> <DRUGBANK_ID>
DB01141

> <SECONDARY_ACCESSION_NUMBERS>
APRD01114

> <DRUG_GROUPS>
approved; investigational

> <GENERIC_NAME>
Micafungin

> <SYNONYMS>
Micafungin; Micafungina

> <PRODUCTS>
Micafungin; Mycamine

> <SALTS>
Micafungin sodium

$$$$

  Mrv1909 08181923252D          

 79 81  0  0  0  0            999 V2000
   -6.1673   -0.2818    0.0000 C   0  0  0  0  0  0  0  0  0  0  0  0
   -6.5802   -0.9959    0.0000 C   0  0  2  0  0  0  0  0  0  0  0  0
   -7.4013   -0.9959    0.0000 C   0  0  2  0  0  0  0  0  0  0  0  0
   -4.1998    2.4922    0.0000 C   0  0  0  0  0  0  0  0  0  0  0  0
   -6.5802    0.4322    0.0000 O   0  0  0  0  0  0  0  0  0  0  0  0
   -7.8190   -0.2818    0.0000 C   0  0  1  0  0  0  0  0  0  0  0  0
   -3.4808    2.9002    0.0000 C   0  0  0  0  0  0  0  0  0  0  0  0
   -4.2046    1.6663    0.0000 C   0  0  0  0  0  0  0  0  0  0  0  0
    6.5026    1.2145    0.0000 O   0  0  0  0  0  0  0  0  0  0  0  0
    7.2216    1.6274    0.0000 C   0  0  0  0  0  0  0  0  0  0  0  0
    6.5026    0.3886    0.0000 C   0  0  0  0  0  0  0  0  0  0  0  0
   -7.4013    0.4322    0.0000 C   0  0  1  0  0  0  0  0  0  0  0  0
   -4.9140    2.9099    0.0000 C   0  0  0  0  0  0  0  0  0  0  0  0
    7.2118   -2.5019    0.0000 C   0  0  0  0  0  0  0  0  0  0  0  0
    6.4977   -2.0889    0.0000 C   0  0  0  0  0  0  0  0  0  0  0  0
   -2.7716    2.4825    0.0000 C   0  0  0  0  0  0  0  0  0  0  0  0
    7.2216    2.4533    0.0000 C   0  0  0  0  0  0  0  0  0  0  0  0
   -5.3414   -0.2818    0.0000 O   0  0  0  0  0  0  0  0  0  0  0  0
   -4.9236    1.2582    0.0000 C   0  0  0  0  0  0  0  0  0  0  0  0
   -2.0524    2.8905    0.0000 C   0  0  0  0  0  0  0  0  0  0  0  0
    7.2167   -0.0242    0.0000 C   0  0  0  0  0  0  0  0  0  0  0  0
    7.2167   -0.8502    0.0000 C   0  0  0  0  0  0  0  0  0  0  0  0
    7.9308   -2.0889    0.0000 C   0  0  0  0  0  0  0  0  0  0  0  0
    5.7835   -2.5019    0.0000 C   0  0  0  0  0  0  0  0  0  0  0  0
   -4.9285    0.4322    0.0000 C   0  0  0  0  0  0  0  0  0  0  0  0
   -1.3383    2.4727    0.0000 C   0  0  0  0  0  0  0  0  0  0  0  0
    7.9308   -1.2630    0.0000 C   0  0  0  0  0  0  0  0  0  0  0  0
    6.5075    2.8662    0.0000 C   0  0  0  0  0  0  0  0  0  0  0  0
    7.9357    1.2097    0.0000 O   0  0  0  0  0  0  0  0  0  0  0  0
    2.9513    2.4484    0.0000 C   0  0  0  0  0  0  0  0  0  0  0  0
    5.7884   -0.0194    0.0000 C   0  0  0  0  0  0  0  0  0  0  0  0
   -4.9091    3.7358    0.0000 O   0  0  0  0  0  0  0  0  0  0  0  0
    1.5230    2.4581    0.0000 C   0  0  0  0  0  0  0  0  0  0  0  0
    0.0899    2.4679    0.0000 C   0  0  0  0  0  0  0  0  0  0  0  0
    3.6702    2.8565    0.0000 C   0  0  0  0  0  0  0  0  0  0  0  0
    6.4977   -1.2630    0.0000 O   0  0  0  0  0  0  0  0  0  0  0  0
   -0.6193    2.8856    0.0000 C   0  0  0  0  0  0  0  0  0  0  0  0
    2.2371    2.8662    0.0000 C   0  0  0  0  0  0  0  0  0  0  0  0
    0.8089    2.8760    0.0000 C   0  0  0  0  0  0  0  0  0  0  0  0
   -7.8142   -1.7101    0.0000 N   0  0  0  0  0  0  0  0  0  0  0  0
   -2.0475    3.7164    0.0000 O   0  0  0  0  0  0  0  0  0  0  0  0
   -2.0670    0.4177    0.0000 C   0  0  0  0  0  0  0  0  0  0  0  0
   -1.3529    0.0048    0.0000 C   0  0  0  0  0  0  0  0  0  0  0  0
   -0.6388    0.4129    0.0000 C   0  0  0  0  0  0  0  0  0  0  0  0
    0.0753    0.0000    0.0000 C   0  0  0  0  0  0  0  0  0  0  0  0
    0.7894    0.4080    0.0000 C   0  0  0  0  0  0  0  0  0  0  0  0
    1.5035   -0.0048    0.0000 C   0  0  0  0  0  0  0  0  0  0  0  0
    2.2177    0.4032    0.0000 C   0  0  0  0  0  0  0  0  0  0  0  0
    2.9318   -0.0096    0.0000 C   0  0  0  0  0  0  0  0  0  0  0  0
    3.6459    0.3984    0.0000 C   0  0  0  0  0  0  0  0  0  0  0  0
   -2.7812    0.0096    0.0000 C   0  0  0  0  0  0  0  0  0  0  0  0
    4.3602   -0.0145    0.0000 C   0  0  0  0  0  0  0  0  0  0  0  0
   -3.4954    0.4226    0.0000 C   0  0  0  0  0  0  0  0  0  0  0  0
   -4.2144    0.0145    0.0000 C   0  0  0  0  0  0  0  0  0  0  0  0
    5.0743    0.3935    0.0000 C   0  0  0  0  0  0  0  0  0  0  0  0
    6.5075    3.6921    0.0000 O   0  0  0  0  0  0  0  0  0  0  0  0
    3.6751    3.6823    0.0000 O   0  0  0  0  0  0  0  0  0  0  0  0
   -6.1624   -1.7101    0.0000 O   0  0  0  0  0  0  0  0  0  0  0  0
    5.0694   -2.0840    0.0000 C   0  0  0  0  0  0  0  0  0  0  0  0
    5.7884   -3.3229    0.0000 C   0  0  0  0  0  0  0  0  0  0  0  0
   -8.6450   -0.2818    0.0000 O   0  0  0  0  0  0  0  0  0  0  0  0
   -3.4759    3.7261    0.0000 O   0  0  0  0  0  0  0  0  0  0  0  0
   -3.4905    1.2484    0.0000 O   0  0  0  0  0  0  0  0  0  0  0  0
   -5.6281    2.5019    0.0000 O   0  0  0  0  0  0  0  0  0  0  0  0
    4.3553   -3.3229    0.0000 C   0  0  0  0  0  0  0  0  0  0  0  0
    3.6410   -3.7358    0.0000 N   0  0  0  0  0  0  0  0  0  0  0  0
    4.3553   -2.4971    0.0000 C   0  0  0  0  0  0  0  0  0  0  0  0
    5.0743   -3.7358    0.0000 C   0  0  0  0  0  0  0  0  0  0  0  0
    8.6450   -2.5019    0.0000 O   0  0  0  0  0  0  0  0  0  0  0  0
    0.8137    3.7018    0.0000 O   0  0  0  0  0  0  0  0  0  0  0  0
    2.2419    3.6921    0.0000 O   0  0  0  0  0  0  0  0  0  0  0  0
   -0.6145    3.7115    0.0000 O   0  0  0  0  0  0  0  0  0  0  0  0
   -7.8142    1.1514    0.0000 C   0  0  0  0  0  0  0  0  0  0  0  0
    5.0986    2.8516    0.0000 C   0  0  0  0  0  0  0  0  0  0  0  0
    7.9308    0.3886    0.0000 C   0  0  0  0  0  0  0  0  0  0  0  0
    5.7933    2.4533    0.0000 C   0  0  0  0  0  0  0  0  0  0  0  0
    4.3844    2.4435    0.0000 C   0  0  0  0  0  0  0  0  0  0  0  0
    8.6450   -0.8502    0.0000 C   0  0  0  0  0  0  0  0  0  0  0  0
    5.7835   -0.8453    0.0000 C   0  0  0  0  0  0  0  0  0  0  0  0
  2  1  1  0  0  0  0
  3  2  1  0  0  0  0
  4  8  1  0  0  0  0
  5  1  1  0  0  0  0
  6 12  1  0  0  0  0
  7  4  1  0  0  0  0
  8 19  1  0  0  0  0
  9 11  1  0  0  0  0
 10  9  1  0  0  0  0
 11 31  1  0  0  0  0
 12  5  1  0  0  0  0
 13  4  1  0  0  0  0
 14 23  1  0  0  0  0
 15 14  1  0  0  0  0
 16  7  1  0  0  0  0
 17 10  1  0  0  0  0
  1 18  1  0  0  0  0
 19 25  1  0  0  0  0
 20 16  1  0  0  0  0
 21 11  1  0  0  0  0
 22 21  1  0  0  0  0
 23 27  1  0  0  0  0
 24 15  1  0  0  0  0
 25 18  1  0  0  0  0
 26 20  1  0  0  0  0
 27 22  1  0  0  0  0
 28 76  1  0  0  0  0
 29 10  2  0  0  0  0
 30 38  1  0  0  0  0
 31 55  1  0  0  0  0
 32 13  2  0  0  0  0
 33 39  1  0  0  0  0
 34 37  1  0  0  0  0
 35 30  1  0  0  0  0
 36 15  2  0  0  0  0
 37 26  1  0  0  0  0
 38 33  1  0  0  0  0
 39 34  1  0  0  0  0
  3 40  1  1  0  0  0
 41 20  2  0  0  0  0
 42 51  2  0  0  0  0
 43 42  1  0  0  0  0
 44 43  2  0  0  0  0
 45 44  1  0  0  0  0
 46 45  2  0  0  0  0
 47 46  1  0  0  0  0
 48 47  2  0  0  0  0
 49 48  1  0  0  0  0
 50 49  2  0  0  0  0
 51 53  1  0  0  0  0
 52 50  1  0  0  0  0
 53 54  2  0  0  0  0
 54 25  1  0  0  0  0
 55 52  2  0  0  0  0
 56 28  2  0  0  0  0
 57 35  2  0  0  0  0
  2 58  1  1  0  0  0
 59 24  2  0  0  0  0
 60 24  1  0  0  0  0
  6 61  1  6  0  0  0
 62  7  1  0  0  0  0
 63  8  1  0  0  0  0
 64 13  1  0  0  0  0
 65 68  1  0  0  0  0
 66 65  1  0  0  0  0
 67 59  1  0  0  0  0
 68 60  2  0  0  0  0
 69 23  1  0  0  0  0
 70 39  1  0  0  0  0
 71 38  1  0  0  0  0
 72 37  1  0  0  0  0
 12 73  1  1  0  0  0
 74 77  1  0  0  0  0
 75 21  1  0  0  0  0
 76 74  1  0  0  0  0
 77 35  1  0  0  0  0
 78 27  1  0  0  0  0
 79 31  1  0  0  0  0
  6  3  1  0  0  0  0
 28 17  1  0  0  0  0
 65 67  2  0  0  0  0
M  END
> <DATABASE_ID>
DB01152

> <DATABASE_NAME>
drugbank

> <SMILES>
CC(CC(C)C1OC(=O)CC(=O)CCCC(=O)CC(O)CC(O)CC(O)CC(=O)CC(O)C(C(O)CC(OC2O[C@H](C)[C@@H](O)[C@H](N)[C@@H]2O)\C=C\C=C\C=C\C=C\C=C\C=C\C=C\C1C)C(O)=O)C(O)CC(=O)C1=CC=C(N)C=C1

> <INCHI_IDENTIFIER>
InChI=1S/C59H84N2O18/c1-35-18-15-13-11-9-7-5-6-8-10-12-14-16-21-47(78-59-56(74)54(61)55(73)38(4)77-59)33-51(71)53(58(75)76)50(70)31-46(67)30-45(66)29-44(65)28-43(64)27-41(62)19-17-20-42(63)32-52(72)79-57(35)37(3)26-36(2)48(68)34-49(69)39-22-24-40(60)25-23-39/h5-16,18,21-25,35-38,43-45,47-48,50-51,53-57,59,64-66,68,70-71,73-74H,17,19-20,26-34,60-61H2,1-4H3,(H,75,76)/b6-5+,9-7+,10-8+,13-11+,14-12+,18-15+,21-16+/t35?,36?,37?,38-,43?,44?,45?,47?,48?,50?,51?,53?,54+,55-,56+,57?,59?/m1/s1

> <INCHI_KEY>
OPGSFDUODIJJGF-JBUZINEHSA-N

> <FORMULA>
C59H84N2O18

> <MOLECULAR_WEIGHT>
1109.317

> <EXACT_MASS>
1108.571913873

> <JCHEM_ACCEPTOR_COUNT>
19

> <JCHEM_ATOM_COUNT>
163

> <JCHEM_AVERAGE_POLARIZABILITY>
118.61397677251071

> <JCHEM_BIOAVAILABILITY>
0

> <JCHEM_DONOR_COUNT>
11

> <JCHEM_FORMAL_CHARGE>
0

> <JCHEM_GHOSE_FILTER>
0

> <JCHEM_IUPAC>
(23E,25E,27E,29E,31E,33E,35E)-22-{[(3S,4S,5S,6R)-4-amino-3,5-dihydroxy-6-methyloxan-2-yl]oxy}-38-[7-(4-aminophenyl)-5-hydroxy-4-methyl-7-oxoheptan-2-yl]-10,12,14,18,20-pentahydroxy-37-methyl-2,4,8,16-tetraoxo-1-oxacyclooctatriaconta-23,25,27,29,31,33,35-heptaene-19-carboxylic acid

> <ALOGPS_LOGP>
-0.76

> <JCHEM_LOGP>
-0.028119118470332462

> <ALOGPS_LOGS>
-5.19

> <JCHEM_MDDR_LIKE_RULE>
1

> <JCHEM_NUMBER_OF_RINGS>
3

> <JCHEM_PHYSIOLOGICAL_CHARGE>
0

> <JCHEM_PKA>
10.146986061481469

> <JCHEM_PKA_STRONGEST_ACIDIC>
3.6844941739164736

> <JCHEM_PKA_STRONGEST_BASIC>
9.071718053390988

> <JCHEM_POLAR_SURFACE_AREA>
364.22

> <JCHEM_REFRACTIVITY>
302.1224999999999

> <JCHEM_ROTATABLE_BOND_COUNT>
10

> <JCHEM_RULE_OF_FIVE>
0

> <ALOGPS_SOLUBILITY>
7.14e-03 g/l

> <JCHEM_TRADITIONAL_IUPAC>
candicidin D

> <JCHEM_VEBER_RULE>
0

> <DRUGBANK_ID>
DB01152

> <SECONDARY_ACCESSION_NUMBERS>
APRD00843

> <DRUG_GROUPS>
approved; withdrawn

> <GENERIC_NAME>
Candicidin

> <SYNONYMS>
Candicidin; Candicidina; Candicidine; Candicidinum; Candizidin; Levorin; Levorina; Levorine; Levorinum

> <INTERNATIONAL_BRANDS>
Vanobid

$$$$
65863
  -OEChem-10051719303D

 42 45  0     1  0  0  0  0  0999 V2000
   -2.9484    1.3690   -2.5739 Cl  0  0  0  0  0  0  0  0  0  0  0  0
    6.4792   -1.0440    0.2440 Cl  0  0  0  0  0  0  0  0  0  0  0  0
   -1.9851    5.6894    0.4883 Cl  0  0  0  0  0  0  0  0  0  0  0  0
    3.6810   -2.0745   -1.3310 S   0  0  0  0  0  0  0  0  0  0  0  0
   -0.6043   -0.7213   -0.0960 O   0  0  0  0  0  0  0  0  0  0  0  0
   -2.8115   -2.4448    0.7545 N   0  0  0  0  0  0  0  0  0  0  0  0
   -3.5105   -4.4289    0.0892 N   0  0  0  0  0  0  0  0  0  0  0  0
   -1.9519   -0.2796   -0.1676 C   0  0  1  0  0  0  0  0  0  0  0  0
   -2.7681   -0.9967    0.9173 C   0  0  0  0  0  0  0  0  0  0  0  0
   -1.9721    1.2263   -0.0332 C   0  0  0  0  0  0  0  0  0  0  0  0
    0.1853   -0.1528   -1.1366 C   0  0  0  0  0  0  0  0  0  0  0  0
    1.5833   -0.6395   -1.0253 C   0  0  0  0  0  0  0  0  0  0  0  0
    2.6040    0.0177   -0.2593 C   0  0  0  0  0  0  0  0  0  0  0  0
   -2.4074    2.0310   -1.0744 C   0  0  0  0  0  0  0  0  0  0  0  0
   -1.5408    1.7726    1.1662 C   0  0  0  0  0  0  0  0  0  0  0  0
    3.8188   -0.6701   -0.3400 C   0  0  0  0  0  0  0  0  0  0  0  0
    2.0333   -1.7777   -1.6511 C   0  0  0  0  0  0  0  0  0  0  0  0
   -1.9289   -3.3296    1.2840 C   0  0  0  0  0  0  0  0  0  0  0  0
   -3.7426   -3.1358    0.0474 C   0  0  0  0  0  0  0  0  0  0  0  0
    2.5535    1.1977    0.5216 C   0  0  0  0  0  0  0  0  0  0  0  0
   -2.4115    3.4166   -0.9129 C   0  0  0  0  0  0  0  0  0  0  0  0
   -1.5449    3.1580    1.3275 C   0  0  0  0  0  0  0  0  0  0  0  0
    4.9699   -0.2133    0.3315 C   0  0  0  0  0  0  0  0  0  0  0  0
   -1.9803    3.9800    0.2880 C   0  0  0  0  0  0  0  0  0  0  0  0
   -2.3814   -4.5566    0.8590 C   0  0  0  0  0  0  0  0  0  0  0  0
    3.6933    1.6532    1.1892 C   0  0  0  0  0  0  0  0  0  0  0  0
    4.8880    0.9538    1.0935 C   0  0  0  0  0  0  0  0  0  0  0  0
   -2.3490   -0.6253   -1.1264 H   0  0  0  0  0  0  0  0  0  0  0  0
   -2.3532   -0.8253    1.9179 H   0  0  0  0  0  0  0  0  0  0  0  0
   -3.8061   -0.6421    0.9256 H   0  0  0  0  0  0  0  0  0  0  0  0
   -0.2299   -0.4499   -2.1085 H   0  0  0  0  0  0  0  0  0  0  0  0
    0.2016    0.9407   -1.1069 H   0  0  0  0  0  0  0  0  0  0  0  0
   -1.1835    1.1527    1.9829 H   0  0  0  0  0  0  0  0  0  0  0  0
    1.4724   -2.4533   -2.2822 H   0  0  0  0  0  0  0  0  0  0  0  0
   -1.0857   -3.0338    1.8926 H   0  0  0  0  0  0  0  0  0  0  0  0
   -4.5600   -2.6591   -0.4763 H   0  0  0  0  0  0  0  0  0  0  0  0
    1.6297    1.7629    0.6134 H   0  0  0  0  0  0  0  0  0  0  0  0
   -2.7507    4.0592   -1.7226 H   0  0  0  0  0  0  0  0  0  0  0  0
   -1.2025    3.5834    2.2675 H   0  0  0  0  0  0  0  0  0  0  0  0
    3.6413    2.5599    1.7855 H   0  0  0  0  0  0  0  0  0  0  0  0
   -1.9509   -5.5252    1.0674 H   0  0  0  0  0  0  0  0  0  0  0  0
    5.7607    1.3299    1.6225 H   0  0  0  0  0  0  0  0  0  0  0  0
  1 14  1  0  0  0  0
  2 23  1  0  0  0  0
  3 24  1  0  0  0  0
  4 16  1  0  0  0  0
  4 17  1  0  0  0  0
  5  8  1  0  0  0  0
  5 11  1  0  0  0  0
  6  9  1  0  0  0  0
  6 18  1  0  0  0  0
  6 19  1  0  0  0  0
  7 19  2  0  0  0  0
  7 25  1  0  0  0  0
  8  9  1  0  0  0  0
  8 10  1  0  0  0  0
  8 28  1  0  0  0  0
  9 29  1  0  0  0  0
  9 30  1  0  0  0  0
 10 14  2  0  0  0  0
 10 15  1  0  0  0  0
 11 12  1  0  0  0  0
 11 31  1  0  0  0  0
 11 32  1  0  0  0  0
 12 13  1  0  0  0  0
 12 17  2  0  0  0  0
 13 16  2  0  0  0  0
 13 20  1  0  0  0  0
 14 21  1  0  0  0  0
 15 22  2  0  0  0  0
 15 33  1  0  0  0  0
 16 23  1  0  0  0  0
 17 34  1  0  0  0  0
 18 25  2  0  0  0  0
 18 35  1  0  0  0  0
 19 36  1  0  0  0  0
 20 26  2  0  0  0  0
 20 37  1  0  0  0  0
 21 24  2  0  0  0  0
 21 38  1  0  0  0  0
 22 24  1  0  0  0  0
 22 39  1  0  0  0  0
 23 27  2  0  0  0  0
 25 41  1  0  0  0  0
 26 27  1  0  0  0  0
 26 40  1  0  0  0  0
 27 42  1  0  0  0  0
M  END
> <DATABASE_ID>
DB01153

> <DATABASE_NAME>
drugbank

> <ORIGINAL_SOURCE>
PUBCHEM

> <ORIGINAL_SOURCE_URL>
https://pubchem.ncbi.nlm.nih.gov/rest/pug/compound/inchikey/JLGKQTAYUIMGRK-UHFFFAOYSA-N/SDF?record_type=3d

> <SMILES>
ClC1=CC(Cl)=C(C=C1)C(CN1C=CN=C1)OCC1=CSC2=C1C=CC=C2Cl

> <INCHI_IDENTIFIER>
InChI=1S/C20H15Cl3N2OS/c21-14-4-5-16(18(23)8-14)19(9-25-7-6-24-12-25)26-10-13-11-27-20-15(13)2-1-3-17(20)22/h1-8,11-12,19H,9-10H2

> <INCHI_KEY>
JLGKQTAYUIMGRK-UHFFFAOYSA-N

> <FORMULA>
C20H15Cl3N2OS

> <MOLECULAR_WEIGHT>
437.77

> <EXACT_MASS>
435.997066923

> <JCHEM_ACCEPTOR_COUNT>
2

> <JCHEM_AVERAGE_POLARIZABILITY>
42.931925497274996

> <JCHEM_BIOAVAILABILITY>
1

> <JCHEM_DONOR_COUNT>
0

> <JCHEM_FORMAL_CHARGE>
0

> <JCHEM_GHOSE_FILTER>
0

> <JCHEM_IUPAC>
1-{2-[(7-chloro-1-benzothiophen-3-yl)methoxy]-2-(2,4-dichlorophenyl)ethyl}-1H-imidazole

> <ALOGPS_LOGP>
5.74

> <JCHEM_LOGP>
6.228348480333333

> <ALOGPS_LOGS>
-4.84

> <JCHEM_MDDR_LIKE_RULE>
1

> <JCHEM_NUMBER_OF_RINGS>
4

> <JCHEM_PHYSIOLOGICAL_CHARGE>
0

> <JCHEM_PKA_STRONGEST_BASIC>
6.767291901573991

> <JCHEM_POLAR_SURFACE_AREA>
27.05

> <JCHEM_REFRACTIVITY>
111.60290000000002

> <JCHEM_ROTATABLE_BOND_COUNT>
6

> <JCHEM_RULE_OF_FIVE>
0

> <ALOGPS_SOLUBILITY>
6.37e-03 g/l

> <JCHEM_TRADITIONAL_IUPAC>
sertaconazole

> <JCHEM_VEBER_RULE>
1

$$$$
55283
  -OEChem-09261817073D

 87 93  0     1  0  0  0  0  0999 V2000
   -6.5254   -1.7467   -1.6377 Cl  0  0  0  0  0  0  0  0  0  0  0  0
  -11.5805   -3.4460   -2.3610 Cl  0  0  0  0  0  0  0  0  0  0  0  0
   -6.5057    0.1500    0.1449 O   0  0  0  0  0  0  0  0  0  0  0  0
   -8.3570    1.3719    0.8979 O   0  0  0  0  0  0  0  0  0  0  0  0
   -4.4627   -1.0299    1.7785 O   0  0  0  0  0  0  0  0  0  0  0  0
    9.6186    1.0866   -1.9247 O   0  0  0  0  0  0  0  0  0  0  0  0
    1.0343   -0.7866    1.0282 N   0  0  0  0  0  0  0  0  0  0  0  0
    3.8826   -0.6581    0.6355 N   0  0  0  0  0  0  0  0  0  0  0  0
   -6.5853    2.8191   -0.8402 N   0  0  0  0  0  0  0  0  0  0  0  0
    9.4016   -0.4097   -0.1285 N   0  0  0  0  0  0  0  0  0  0  0  0
   -7.0572    3.9226   -0.2405 N   0  0  0  0  0  0  0  0  0  0  0  0
   11.4386    0.0460   -0.8448 N   0  0  0  0  0  0  0  0  0  0  0  0
   -4.7737    3.9487   -0.3735 N   0  0  0  0  0  0  0  0  0  0  0  0
   11.5740   -0.8327    0.1879 N   0  0  0  0  0  0  0  0  0  0  0  0
   -7.7691    0.7239   -0.2483 C   0  0  1  0  0  0  0  0  0  0  0  0
   -6.5260    0.1565    1.5740 C   0  0  2  0  0  0  0  0  0  0  0  0
   -7.3298    1.3911    1.8892 C   0  0  0  0  0  0  0  0  0  0  0  0
    1.7997   -1.9795    0.6668 C   0  0  0  0  0  0  0  0  0  0  0  0
    1.7604    0.4737    1.1841 C   0  0  0  0  0  0  0  0  0  0  0  0
    3.2471   -1.8695    1.1540 C   0  0  0  0  0  0  0  0  0  0  0  0
    3.0264    0.4860    0.3229 C   0  0  0  0  0  0  0  0  0  0  0  0
   -7.4910    1.7814   -1.3160 C   0  0  0  0  0  0  0  0  0  0  0  0
   -8.7047   -0.3456   -0.7922 C   0  0  0  0  0  0  0  0  0  0  0  0
   -5.1170    0.1812    2.1259 C   0  0  0  0  0  0  0  0  0  0  0  0
   -0.3438   -0.8485    1.2172 C   0  0  0  0  0  0  0  0  0  0  0  0
    5.2604   -0.5963    0.4446 C   0  0  0  0  0  0  0  0  0  0  0  0
   -8.2194   -1.4873   -1.4301 C   0  0  0  0  0  0  0  0  0  0  0  0
  -10.0790   -0.1631   -0.6391 C   0  0  0  0  0  0  0  0  0  0  0  0
   -0.9647    0.0228    2.1121 C   0  0  0  0  0  0  0  0  0  0  0  0
   -1.1035   -1.7804    0.5102 C   0  0  0  0  0  0  0  0  0  0  0  0
   -3.1052   -0.9700    1.5935 C   0  0  0  0  0  0  0  0  0  0  0  0
    6.1116   -1.3429    1.2592 C   0  0  0  0  0  0  0  0  0  0  0  0
    5.7895    0.2124   -0.5613 C   0  0  0  0  0  0  0  0  0  0  0  0
   -2.3455   -0.0380    2.3003 C   0  0  0  0  0  0  0  0  0  0  0  0
   -2.4843   -1.8412    0.6985 C   0  0  0  0  0  0  0  0  0  0  0  0
    8.0210   -0.4720    0.0625 C   0  0  0  0  0  0  0  0  0  0  0  0
    7.4919   -1.2808    1.0682 C   0  0  0  0  0  0  0  0  0  0  0  0
    7.1698    0.2746   -0.7522 C   0  0  0  0  0  0  0  0  0  0  0  0
   -9.1084   -2.4466   -1.9146 C   0  0  0  0  0  0  0  0  0  0  0  0
  -10.9681   -1.1225   -1.1239 C   0  0  0  0  0  0  0  0  0  0  0  0
   -5.2274    2.8424   -0.9155 C   0  0  0  0  0  0  0  0  0  0  0  0
   12.5337    0.5997   -1.5962 C   0  0  1  0  0  0  0  0  0  0  0  0
  -10.4828   -2.2641   -1.7617 C   0  0  0  0  0  0  0  0  0  0  0  0
   10.0824    0.3381   -1.0758 C   0  0  0  0  0  0  0  0  0  0  0  0
   13.4805    1.4029   -0.6952 C   0  0  0  0  0  0  0  0  0  0  0  0
   -5.9219    4.5732    0.0221 C   0  0  0  0  0  0  0  0  0  0  0  0
   10.3571   -1.0616    0.5649 C   0  0  0  0  0  0  0  0  0  0  0  0
   13.2846   -0.5192   -2.3107 C   0  0  0  0  0  0  0  0  0  0  0  0
   12.7733    2.5338    0.0405 C   0  0  0  0  0  0  0  0  0  0  0  0
   -7.0517   -0.7534    1.8898 H   0  0  0  0  0  0  0  0  0  0  0  0
   -7.7773    1.3538    2.8866 H   0  0  0  0  0  0  0  0  0  0  0  0
   -6.7490    2.3121    1.8138 H   0  0  0  0  0  0  0  0  0  0  0  0
    1.3631   -2.8788    1.1186 H   0  0  0  0  0  0  0  0  0  0  0  0
    1.7819   -2.1051   -0.4230 H   0  0  0  0  0  0  0  0  0  0  0  0
    1.1403    1.3254    0.8780 H   0  0  0  0  0  0  0  0  0  0  0  0
    2.0264    0.6104    2.2397 H   0  0  0  0  0  0  0  0  0  0  0  0
    3.2708   -1.8500    2.2507 H   0  0  0  0  0  0  0  0  0  0  0  0
    3.7808   -2.7676    0.8195 H   0  0  0  0  0  0  0  0  0  0  0  0
    2.7545    0.4557   -0.7395 H   0  0  0  0  0  0  0  0  0  0  0  0
    3.5493    1.4318    0.5121 H   0  0  0  0  0  0  0  0  0  0  0  0
   -7.0191    1.3474   -2.2057 H   0  0  0  0  0  0  0  0  0  0  0  0
   -8.4100    2.2899   -1.6328 H   0  0  0  0  0  0  0  0  0  0  0  0
   -5.1403    0.2760    3.2174 H   0  0  0  0  0  0  0  0  0  0  0  0
   -4.6008    1.0472    1.6910 H   0  0  0  0  0  0  0  0  0  0  0  0
  -10.4863    0.7220   -0.1586 H   0  0  0  0  0  0  0  0  0  0  0  0
   -0.3988    0.7455    2.6935 H   0  0  0  0  0  0  0  0  0  0  0  0
   -0.6534   -2.4624   -0.2059 H   0  0  0  0  0  0  0  0  0  0  0  0
    5.7319   -1.9704    2.0610 H   0  0  0  0  0  0  0  0  0  0  0  0
    5.1524    0.7938   -1.2223 H   0  0  0  0  0  0  0  0  0  0  0  0
   -2.7854    0.6360    3.0294 H   0  0  0  0  0  0  0  0  0  0  0  0
   -3.0725   -2.5662    0.1425 H   0  0  0  0  0  0  0  0  0  0  0  0
    8.1066   -1.8786    1.7317 H   0  0  0  0  0  0  0  0  0  0  0  0
    7.4980    0.9208   -1.5536 H   0  0  0  0  0  0  0  0  0  0  0  0
   -8.7317   -3.3375   -2.4126 H   0  0  0  0  0  0  0  0  0  0  0  0
  -12.0366   -0.9657   -1.0005 H   0  0  0  0  0  0  0  0  0  0  0  0
   -4.6374    2.0526   -1.3589 H   0  0  0  0  0  0  0  0  0  0  0  0
   12.1234    1.2732   -2.3586 H   0  0  0  0  0  0  0  0  0  0  0  0
   14.2869    1.8285   -1.3047 H   0  0  0  0  0  0  0  0  0  0  0  0
   13.9549    0.7462    0.0446 H   0  0  0  0  0  0  0  0  0  0  0  0
   -5.9314    5.5320    0.5185 H   0  0  0  0  0  0  0  0  0  0  0  0
   10.1018   -1.7355    1.3876 H   0  0  0  0  0  0  0  0  0  0  0  0
   13.7334   -1.2234   -1.6012 H   0  0  0  0  0  0  0  0  0  0  0  0
   12.6096   -1.0886   -2.9592 H   0  0  0  0  0  0  0  0  0  0  0  0
   14.0871   -0.1119   -2.9346 H   0  0  0  0  0  0  0  0  0  0  0  0
   12.0332    2.1542    0.7514 H   0  0  0  0  0  0  0  0  0  0  0  0
   13.5012    3.1254    0.6052 H   0  0  0  0  0  0  0  0  0  0  0  0
   12.2670    3.2028   -0.6627 H   0  0  0  0  0  0  0  0  0  0  0  0
  1 27  1  0  0  0  0
  2 43  1  0  0  0  0
  3 15  1  0  0  0  0
  3 16  1  0  0  0  0
  4 15  1  0  0  0  0
  4 17  1  0  0  0  0
  5 24  1  0  0  0  0
  5 31  1  0  0  0  0
  6 44  2  0  0  0  0
  7 18  1  0  0  0  0
  7 19  1  0  0  0  0
  7 25  1  0  0  0  0
  8 20  1  0  0  0  0
  8 21  1  0  0  0  0
  8 26  1  0  0  0  0
  9 11  1  0  0  0  0
  9 22  1  0  0  0  0
  9 41  1  0  0  0  0
 10 36  1  0  0  0  0
 10 44  1  0  0  0  0
 10 47  1  0  0  0  0
 11 46  2  0  0  0  0
 12 14  1  0  0  0  0
 12 42  1  0  0  0  0
 12 44  1  0  0  0  0
 13 41  2  0  0  0  0
 13 46  1  0  0  0  0
 14 47  2  0  0  0  0
 15 22  1  0  0  0  0
 15 23  1  0  0  0  0
 16 17  1  0  0  0  0
 16 24  1  0  0  0  0
 16 50  1  0  0  0  0
 17 51  1  0  0  0  0
 17 52  1  0  0  0  0
 18 20  1  0  0  0  0
 18 53  1  0  0  0  0
 18 54  1  0  0  0  0
 19 21  1  0  0  0  0
 19 55  1  0  0  0  0
 19 56  1  0  0  0  0
 20 57  1  0  0  0  0
 20 58  1  0  0  0  0
 21 59  1  0  0  0  0
 21 60  1  0  0  0  0
 22 61  1  0  0  0  0
 22 62  1  0  0  0  0
 23 27  2  0  0  0  0
 23 28  1  0  0  0  0
 24 63  1  0  0  0  0
 24 64  1  0  0  0  0
 25 29  2  0  0  0  0
 25 30  1  0  0  0  0
 26 32  2  0  0  0  0
 26 33  1  0  0  0  0
 27 39  1  0  0  0  0
 28 40  2  0  0  0  0
 28 65  1  0  0  0  0
 29 34  1  0  0  0  0
 29 66  1  0  0  0  0
 30 35  2  0  0  0  0
 30 67  1  0  0  0  0
 31 34  2  0  0  0  0
 31 35  1  0  0  0  0
 32 37  1  0  0  0  0
 32 68  1  0  0  0  0
 33 38  2  0  0  0  0
 33 69  1  0  0  0  0
 34 70  1  0  0  0  0
 35 71  1  0  0  0  0
 36 37  2  0  0  0  0
 36 38  1  0  0  0  0
 37 72  1  0  0  0  0
 38 73  1  0  0  0  0
 39 43  2  0  0  0  0
 39 74  1  0  0  0  0
 40 43  1  0  0  0  0
 40 75  1  0  0  0  0
 41 76  1  0  0  0  0
 42 45  1  0  0  0  0
 42 48  1  0  0  0  0
 42 77  1  0  0  0  0
 45 49  1  0  0  0  0
 45 78  1  0  0  0  0
 45 79  1  0  0  0  0
 46 80  1  0  0  0  0
 47 81  1  0  0  0  0
 48 82  1  0  0  0  0
 48 83  1  0  0  0  0
 48 84  1  0  0  0  0
 49 85  1  0  0  0  0
 49 86  1  0  0  0  0
 49 87  1  0  0  0  0
M  END
> <DATABASE_ID>
DB01167

> <DATABASE_NAME>
drugbank

> <ORIGINAL_SOURCE>
PUBCHEM

> <ORIGINAL_SOURCE_URL>
https://pubchem.ncbi.nlm.nih.gov/rest/pug/compound/inchikey/VHVPQPYKVGDNFY-ZPGVKDDISA-N/SDF?record_type=3d

> <SMILES>
CCC(C)N1N=CN(C1=O)C1=CC=C(C=C1)N1CCN(CC1)C1=CC=C(OC[C@H]2CO[C@@](CN3C=NC=N3)(O2)C2=CC=C(Cl)C=C2Cl)C=C1

> <INCHI_IDENTIFIER>
InChI=1S/C35H38Cl2N8O4/c1-3-25(2)45-34(46)44(24-40-45)29-7-5-27(6-8-29)41-14-16-42(17-15-41)28-9-11-30(12-10-28)47-19-31-20-48-35(49-31,21-43-23-38-22-39-43)32-13-4-26(36)18-33(32)37/h4-13,18,22-25,31H,3,14-17,19-21H2,1-2H3/t25?,31-,35-/m0/s1

> <INCHI_KEY>
VHVPQPYKVGDNFY-ZPGVKDDISA-N

> <FORMULA>
C35H38Cl2N8O4

> <MOLECULAR_WEIGHT>
705.633

> <EXACT_MASS>
704.239307158

> <JCHEM_ACCEPTOR_COUNT>
9

> <JCHEM_ATOM_COUNT>
87

> <JCHEM_AVERAGE_POLARIZABILITY>
74.71436241108913

> <JCHEM_BIOAVAILABILITY>
0

> <JCHEM_DONOR_COUNT>
0

> <JCHEM_FORMAL_CHARGE>
0

> <JCHEM_GHOSE_FILTER>
0

> <JCHEM_IUPAC>
1-(butan-2-yl)-4-{4-[4-(4-{[(2R,4S)-2-(2,4-dichlorophenyl)-2-[(1H-1,2,4-triazol-1-yl)methyl]-1,3-dioxolan-4-yl]methoxy}phenyl)piperazin-1-yl]phenyl}-4,5-dihydro-1H-1,2,4-triazol-5-one

> <ALOGPS_LOGP>
5.48

> <JCHEM_LOGP>
7.311371119666667

> <ALOGPS_LOGS>
-4.86

> <JCHEM_MDDR_LIKE_RULE>
1

> <JCHEM_NUMBER_OF_RINGS>
7

> <JCHEM_PHYSIOLOGICAL_CHARGE>
0

> <JCHEM_PKA_STRONGEST_BASIC>
3.9140674819559207

> <JCHEM_POLAR_SURFACE_AREA>
100.79

> <JCHEM_REFRACTIVITY>
200.3999999999999

> <JCHEM_ROTATABLE_BOND_COUNT>
11

> <JCHEM_RULE_OF_FIVE>
0

> <ALOGPS_SOLUBILITY>
9.64e-03 g/l

> <JCHEM_TRADITIONAL_IUPAC>
itraconazole

> <JCHEM_VEBER_RULE>
0

$$$$
2749
  -OEChem-10051719313D

 32 33  0     0  0  0  0  0  0999 V2000
   -0.6120    2.3795   -0.0558 O   0  0  0  0  0  0  0  0  0  0  0  0
   -3.3029    1.8780    0.0356 O   0  0  0  0  0  0  0  0  0  0  0  0
   -1.1282    1.0753   -0.0079 N   0  0  0  0  0  0  0  0  0  0  0  0
    1.2497    0.3660    0.0063 C   0  0  0  0  0  0  0  0  0  0  0  0
    1.9277   -0.1784   -1.2592 C   0  0  0  0  0  0  0  0  0  0  0  0
    1.9293   -0.1847    1.2681 C   0  0  0  0  0  0  0  0  0  0  0  0
    3.4305    0.0949   -1.2569 C   0  0  0  0  0  0  0  0  0  0  0  0
    3.4321    0.0881    1.2650 C   0  0  0  0  0  0  0  0  0  0  0  0
    4.0989   -0.4474    0.0021 C   0  0  0  0  0  0  0  0  0  0  0  0
   -0.2150    0.0456    0.0061 C   0  0  0  0  0  0  0  0  0  0  0  0
   -0.6799   -1.2161    0.0031 C   0  0  0  0  0  0  0  0  0  0  0  0
   -2.1089   -1.4773   -0.0062 C   0  0  0  0  0  0  0  0  0  0  0  0
   -2.4982    0.9502    0.0205 C   0  0  0  0  0  0  0  0  0  0  0  0
   -2.9879   -0.4606    0.0025 C   0  0  0  0  0  0  0  0  0  0  0  0
   -2.5353   -2.9131   -0.0229 C   0  0  0  0  0  0  0  0  0  0  0  0
    1.4252    1.4479    0.0109 H   0  0  0  0  0  0  0  0  0  0  0  0
    1.4821    0.2801   -2.1511 H   0  0  0  0  0  0  0  0  0  0  0  0
    1.7761   -1.2612   -1.3530 H   0  0  0  0  0  0  0  0  0  0  0  0
    1.7777   -1.2680    1.3568 H   0  0  0  0  0  0  0  0  0  0  0  0
    1.4849    0.2694    2.1627 H   0  0  0  0  0  0  0  0  0  0  0  0
    3.6050    1.1757   -1.3269 H   0  0  0  0  0  0  0  0  0  0  0  0
    3.8888   -0.3596   -2.1425 H   0  0  0  0  0  0  0  0  0  0  0  0
    3.8917   -0.3713    2.1474 H   0  0  0  0  0  0  0  0  0  0  0  0
    3.6070    1.1684    1.3406 H   0  0  0  0  0  0  0  0  0  0  0  0
    4.0483   -1.5432   -0.0009 H   0  0  0  0  0  0  0  0  0  0  0  0
    5.1607   -0.1766    0.0021 H   0  0  0  0  0  0  0  0  0  0  0  0
   -0.0121   -2.0714    0.0069 H   0  0  0  0  0  0  0  0  0  0  0  0
   -4.0604   -0.6193   -0.0010 H   0  0  0  0  0  0  0  0  0  0  0  0
   -2.1586   -3.4374    0.8620 H   0  0  0  0  0  0  0  0  0  0  0  0
   -2.1516   -3.4186   -0.9157 H   0  0  0  0  0  0  0  0  0  0  0  0
   -3.6260   -3.0149   -0.0284 H   0  0  0  0  0  0  0  0  0  0  0  0
   -0.7458    2.6588    0.8662 H   0  0  0  0  0  0  0  0  0  0  0  0
  1  3  1  0  0  0  0
  1 32  1  0  0  0  0
  2 13  2  0  0  0  0
  3 10  1  0  0  0  0
  3 13  1  0  0  0  0
  4  5  1  0  0  0  0
  4  6  1  0  0  0  0
  4 10  1  0  0  0  0
  4 16  1  0  0  0  0
  5  7  1  0  0  0  0
  5 17  1  0  0  0  0
  5 18  1  0  0  0  0
  6  8  1  0  0  0  0
  6 19  1  0  0  0  0
  6 20  1  0  0  0  0
  7  9  1  0  0  0  0
  7 21  1  0  0  0  0
  7 22  1  0  0  0  0
  8  9  1  0  0  0  0
  8 23  1  0  0  0  0
  8 24  1  0  0  0  0
  9 25  1  0  0  0  0
  9 26  1  0  0  0  0
 10 11  2  0  0  0  0
 11 12  1  0  0  0  0
 11 27  1  0  0  0  0
 12 14  2  0  0  0  0
 12 15  1  0  0  0  0
 13 14  1  0  0  0  0
 14 28  1  0  0  0  0
 15 29  1  0  0  0  0
 15 30  1  0  0  0  0
 15 31  1  0  0  0  0
M  END
> <DATABASE_ID>
DB01188

> <DATABASE_NAME>
drugbank

> <ORIGINAL_SOURCE>
PUBCHEM

> <ORIGINAL_SOURCE_URL>
https://pubchem.ncbi.nlm.nih.gov/rest/pug/compound/inchikey/SCKYRAXSEDYPSA-UHFFFAOYSA-N/SDF?record_type=3d

> <SMILES>
CC1=CC(=O)N(O)C(=C1)C1CCCCC1

> <INCHI_IDENTIFIER>
InChI=1S/C12H17NO2/c1-9-7-11(13(15)12(14)8-9)10-5-3-2-4-6-10/h7-8,10,15H,2-6H2,1H3

> <INCHI_KEY>
SCKYRAXSEDYPSA-UHFFFAOYSA-N

> <FORMULA>
C12H17NO2

> <MOLECULAR_WEIGHT>
207.2689

> <EXACT_MASS>
207.125928793

> <JCHEM_ACCEPTOR_COUNT>
2

> <JCHEM_AVERAGE_POLARIZABILITY>
23.117942047063018

> <JCHEM_BIOAVAILABILITY>
1

> <JCHEM_DONOR_COUNT>
1

> <JCHEM_FORMAL_CHARGE>
0

> <JCHEM_GHOSE_FILTER>
1

> <JCHEM_IUPAC>
6-cyclohexyl-1-hydroxy-4-methyl-1,2-dihydropyridin-2-one

> <ALOGPS_LOGP>
2.15

> <JCHEM_LOGP>
2.216589469333334

> <ALOGPS_LOGS>
-2.17

> <JCHEM_MDDR_LIKE_RULE>
0

> <JCHEM_NUMBER_OF_RINGS>
2

> <JCHEM_PHYSIOLOGICAL_CHARGE>
-1

> <JCHEM_PKA_STRONGEST_ACIDIC>
6.842140564132407

> <JCHEM_PKA_STRONGEST_BASIC>
-6.194129902384247

> <JCHEM_POLAR_SURFACE_AREA>
40.54

> <JCHEM_REFRACTIVITY>
60.907399999999996

> <JCHEM_ROTATABLE_BOND_COUNT>
1

> <JCHEM_RULE_OF_FIVE>
1

> <ALOGPS_SOLUBILITY>
1.41e+00 g/l

> <JCHEM_TRADITIONAL_IUPAC>
penlac

> <JCHEM_VEBER_RULE>
0

$$$$
2722
  -OEChem-10051719323D

 18 19  0     0  0  0  0  0  0999 V2000
    0.1120   -3.3227   -0.0008 Cl  0  0  0  0  0  0  0  0  0  0  0  0
   -3.6847    0.4252   -0.0004 Cl  0  0  0  0  0  0  0  0  0  0  0  0
   -1.4152    2.3529   -0.0006 O   0  0  0  0  0  0  0  0  0  0  0  0
    1.2399    1.7282    0.0000 N   0  0  0  0  0  0  0  0  0  0  0  0
    0.7069   -0.6219    0.0001 C   0  0  0  0  0  0  0  0  0  0  0  0
    0.3285    0.7369    0.0001 C   0  0  0  0  0  0  0  0  0  0  0  0
   -1.0307    1.0383    0.0003 C   0  0  0  0  0  0  0  0  0  0  0  0
   -0.2713   -1.6309    0.0004 C   0  0  0  0  0  0  0  0  0  0  0  0
    2.0749   -0.9260    0.0001 C   0  0  0  0  0  0  0  0  0  0  0  0
   -2.0033    0.0355    0.0004 C   0  0  0  0  0  0  0  0  0  0  0  0
   -1.6234   -1.3009    0.0005 C   0  0  0  0  0  0  0  0  0  0  0  0
    3.0163    0.0932   -0.0001 C   0  0  0  0  0  0  0  0  0  0  0  0
    2.5502    1.3922    0.0000 C   0  0  0  0  0  0  0  0  0  0  0  0
    2.4432   -1.9479    0.0001 H   0  0  0  0  0  0  0  0  0  0  0  0
   -2.3806   -2.0820    0.0003 H   0  0  0  0  0  0  0  0  0  0  0  0
    4.0781   -0.1233   -0.0001 H   0  0  0  0  0  0  0  0  0  0  0  0
    3.2395    2.2302    0.0000 H   0  0  0  0  0  0  0  0  0  0  0  0
   -2.3874    2.3887   -0.0007 H   0  0  0  0  0  0  0  0  0  0  0  0
  1  8  1  0  0  0  0
  2 10  1  0  0  0  0
  3  7  1  0  0  0  0
  3 18  1  0  0  0  0
  4  6  1  0  0  0  0
  4 13  2  0  0  0  0
  5  6  2  0  0  0  0
  5  8  1  0  0  0  0
  5  9  1  0  0  0  0
  6  7  1  0  0  0  0
  7 10  2  0  0  0  0
  8 11  2  0  0  0  0
  9 12  2  0  0  0  0
  9 14  1  0  0  0  0
 10 11  1  0  0  0  0
 11 15  1  0  0  0  0
 12 13  1  0  0  0  0
 12 16  1  0  0  0  0
 13 17  1  0  0  0  0
M  END
> <DATABASE_ID>
DB01243

> <DATABASE_NAME>
drugbank

> <ORIGINAL_SOURCE>
PUBCHEM

> <ORIGINAL_SOURCE_URL>
https://pubchem.ncbi.nlm.nih.gov/rest/pug/compound/inchikey/WDFKMLRRRCGAKS-UHFFFAOYSA-N/SDF?record_type=3d

> <SMILES>
OC1=C(Cl)C=C(Cl)C2=C1N=CC=C2

> <INCHI_IDENTIFIER>
InChI=1S/C9H5Cl2NO/c10-6-4-7(11)9(13)8-5(6)2-1-3-12-8/h1-4,13H

> <INCHI_KEY>
WDFKMLRRRCGAKS-UHFFFAOYSA-N

> <FORMULA>
C9H5Cl2NO

> <MOLECULAR_WEIGHT>
214.048

> <EXACT_MASS>
212.974819201

> <JCHEM_ACCEPTOR_COUNT>
2

> <JCHEM_AVERAGE_POLARIZABILITY>
19.322074782592896

> <JCHEM_BIOAVAILABILITY>
1

> <JCHEM_DONOR_COUNT>
1

> <JCHEM_FORMAL_CHARGE>
0

> <JCHEM_GHOSE_FILTER>
0

> <JCHEM_IUPAC>
5,7-dichloroquinolin-8-ol

> <ALOGPS_LOGP>
3.44

> <JCHEM_LOGP>
3.035424502333333

> <ALOGPS_LOGS>
-3.19

> <JCHEM_MDDR_LIKE_RULE>
0

> <JCHEM_NUMBER_OF_RINGS>
2

> <JCHEM_PHYSIOLOGICAL_CHARGE>
-1

> <JCHEM_PKA_STRONGEST_ACIDIC>
6.954170972705197

> <JCHEM_PKA_STRONGEST_BASIC>
3.3963142832284525

> <JCHEM_POLAR_SURFACE_AREA>
33.120000000000005

> <JCHEM_REFRACTIVITY>
51.56980000000001

> <JCHEM_ROTATABLE_BOND_COUNT>
0

> <JCHEM_RULE_OF_FIVE>
1

> <ALOGPS_SOLUBILITY>
1.38e-01 g/l

> <JCHEM_TRADITIONAL_IUPAC>
chloroxine

> <JCHEM_VEBER_RULE>
1

$$$$

  Mrv1909 10181920262D          

 54 60  0  0  1  0            999 V2000
   13.4426    2.8311    0.0000 C   0  0  0  0  0  0  0  0  0  0  0  0
   14.0367    0.0356    0.0000 C   0  0  0  0  0  0  0  0  0  0  0  0
   13.9945    2.2180    0.0000 C   0  0  0  0  0  0  0  0  0  0  0  0
   -0.8236    5.1596    0.0000 C   0  0  0  0  0  0  0  0  0  0  0  0
    9.4303    1.5876    0.0000 C   0  0  0  0  0  0  0  0  0  0  0  0
   10.0115    2.8929    0.0000 C   0  0  0  0  0  0  0  0  0  0  0  0
   10.1840    1.2520    0.0000 C   0  0  0  0  0  0  0  0  0  0  0  0
   10.7652    2.5574    0.0000 C   0  0  0  0  0  0  0  0  0  0  0  0
    6.2431    4.5707    0.0000 C   0  0  0  0  0  0  0  0  0  0  0  0
    5.6620    3.2654    0.0000 C   0  0  0  0  0  0  0  0  0  0  0  0
    5.4895    4.9063    0.0000 C   0  0  0  0  0  0  0  0  0  0  0  0
    4.9083    3.6009    0.0000 C   0  0  0  0  0  0  0  0  0  0  0  0
   -0.1092    4.7472    0.0000 C   0  0  0  0  0  0  0  0  0  0  0  0
    8.5042    3.5641    0.0000 C   0  0  0  0  0  0  0  0  0  0  0  0
    7.9230    2.2587    0.0000 C   0  0  0  0  0  0  0  0  0  0  0  0
    7.7505    3.8996    0.0000 C   0  0  0  0  0  0  0  0  0  0  0  0
    7.1693    2.5943    0.0000 C   0  0  0  0  0  0  0  0  0  0  0  0
   -0.1092    6.3971    0.0000 C   0  0  0  0  0  0  0  0  0  0  0  0
    1.9328    4.1950    0.0000 C   0  0  0  0  0  0  0  0  0  0  0  0
    3.4009    4.2720    0.0000 C   0  0  0  0  0  0  0  0  0  0  0  0
    2.4757    5.4145    0.0000 C   0  0  0  0  0  0  0  0  0  0  0  0
    0.8347    4.0797    0.0000 C   0  0  0  0  0  0  0  0  0  0  0  0
    1.3099    1.9984    0.0000 C   0  0  0  0  0  0  0  0  0  0  0  0
    1.9773    3.1545    0.0000 C   0  0  0  0  0  0  0  0  0  0  0  0
   11.7766    0.5944    0.0000 C   0  0  0  0  0  0  0  0  0  0  0  0
   14.2917    0.8202    0.0000 C   0  0  1  0  0  0  0  0  0  0  0  0
    2.6473    4.6076    0.0000 C   0  0  2  0  0  0  0  0  0  0  0  0
   -0.8236    5.9846    0.0000 C   0  0  0  0  0  0  0  0  0  0  0  0
    9.3441    2.4080    0.0000 C   0  0  0  0  0  0  0  0  0  0  0  0
    6.3294    3.7502    0.0000 C   0  0  0  0  0  0  0  0  0  0  0  0
   10.8514    1.7369    0.0000 C   0  0  0  0  0  0  0  0  0  0  0  0
    4.8220    4.4213    0.0000 C   0  0  0  0  0  0  0  0  0  0  0  0
    0.6052    5.1596    0.0000 C   0  0  0  0  0  0  0  0  0  0  0  0
    0.6052    5.9846    0.0000 C   0  0  0  0  0  0  0  0  0  0  0  0
   13.7397    1.4334    0.0000 C   0  0  1  0  0  0  0  0  0  0  0  0
   12.3196    1.8139    0.0000 C   0  0  0  0  0  0  0  0  0  0  0  0
    1.3196    4.7472    0.0000 C   0  0  2  0  0  0  0  0  0  0  0  0
   -1.5381    6.3971    0.0000 F   0  0  0  0  0  0  0  0  0  0  0  0
    1.3196    6.3971    0.0000 F   0  0  0  0  0  0  0  0  0  0  0  0
    2.0635    2.3340    0.0000 N   0  0  0  0  0  0  0  0  0  0  0  0
    0.7578    2.6115    0.0000 N   0  0  0  0  0  0  0  0  0  0  0  0
   12.5971    0.5081    0.0000 N   0  0  0  0  0  0  0  0  0  0  0  0
    8.5904    2.7436    0.0000 N   0  0  0  0  0  0  0  0  0  0  0  0
    7.0830    3.4147    0.0000 N   0  0  0  0  0  0  0  0  0  0  0  0
    1.1703    3.3260    0.0000 N   0  0  0  0  0  0  0  0  0  0  0  0
   11.6051    1.4013    0.0000 N   0  0  0  0  0  0  0  0  0  0  0  0
   12.9326    1.2618    0.0000 N   0  0  0  0  0  0  0  0  0  0  0  0
   15.0986    0.9918    0.0000 O   0  0  0  0  0  0  0  0  0  0  0  0
   12.4058    2.6343    0.0000 O   0  0  0  0  0  0  0  0  0  0  0  0
    4.0683    4.7569    0.0000 O   0  0  0  0  0  0  0  0  0  0  0  0
    1.6552    5.5008    0.0000 O   0  0  0  0  0  0  0  0  0  0  0  0
   13.4847    0.6488    0.0000 H   0  0  0  0  0  0  0  0  0  0  0  0
    2.6904    3.7837    0.0000 H   0  0  0  0  0  0  0  0  0  0  0  0
   14.5466    1.6049    0.0000 H   0  0  0  0  0  0  0  0  0  0  0  0
  3  1  1  0  0  0  0
  7  5  1  0  0  0  0
  8  6  2  0  0  0  0
 11  9  1  0  0  0  0
 12 10  2  0  0  0  0
 13  4  2  0  0  0  0
 16 14  1  0  0  0  0
 17 15  1  0  0  0  0
 26  2  1  0  0  0  0
 27 19  1  0  0  0  0
 27 20  1  1  0  0  0
 27 21  1  0  0  0  0
 28  4  1  0  0  0  0
 28 18  2  0  0  0  0
 29  5  2  0  0  0  0
 29  6  1  0  0  0  0
 30  9  2  0  0  0  0
 30 10  1  0  0  0  0
 31  7  2  0  0  0  0
 31  8  1  0  0  0  0
 32 11  2  0  0  0  0
 32 12  1  0  0  0  0
 33 13  1  0  0  0  0
 34 18  1  0  0  0  0
 34 33  2  0  0  0  0
 35  3  1  0  0  0  0
 35 26  1  0  0  0  0
 37 19  1  0  0  0  0
 37 22  1  1  0  0  0
 37 33  1  6  0  0  0
 38 28  1  0  0  0  0
 39 34  1  0  0  0  0
 40 23  1  0  0  0  0
 40 24  2  0  0  0  0
 41 23  2  0  0  0  0
 42 25  2  0  0  0  0
 43 14  1  0  0  0  0
 43 15  1  0  0  0  0
 43 29  1  0  0  0  0
 44 16  1  0  0  0  0
 44 17  1  0  0  0  0
 44 30  1  0  0  0  0
 45 22  1  0  0  0  0
 45 24  1  0  0  0  0
 45 41  1  0  0  0  0
 46 25  1  0  0  0  0
 46 31  1  0  0  0  0
 46 36  1  0  0  0  0
 35 47  1  6  0  0  0
 47 36  1  0  0  0  0
 47 42  1  0  0  0  0
 26 48  1  6  0  0  0
 49 36  2  0  0  0  0
 50 20  1  0  0  0  0
 50 32  1  0  0  0  0
 51 21  1  0  0  0  0
 51 37  1  0  0  0  0
 26 52  1  6  0  0  0
 27 53  1  6  0  0  0
 35 54  1  6  0  0  0
M  END
> <DATABASE_ID>
DB01263

> <DATABASE_NAME>
drugbank

> <SMILES>
[H][C@@](C)(O)[C@]([H])(CC)N1N=CN(C1=O)C1=CC=C(C=C1)N1CCN(CC1)C1=CC=C(OC[C@]2([H])CO[C@](CN3C=NC=N3)(C2)C2=C(F)C=C(F)C=C2)C=C1

> <INCHI_IDENTIFIER>
InChI=1S/C37H42F2N8O4/c1-3-35(26(2)48)47-36(49)46(25-42-47)31-7-5-29(6-8-31)43-14-16-44(17-15-43)30-9-11-32(12-10-30)50-20-27-19-37(51-21-27,22-45-24-40-23-41-45)33-13-4-28(38)18-34(33)39/h4-13,18,23-27,35,48H,3,14-17,19-22H2,1-2H3/t26-,27+,35-,37-/m0/s1

> <INCHI_KEY>
RAGOYPUPXAKGKH-XAKZXMRKSA-N

> <FORMULA>
C37H42F2N8O4

> <MOLECULAR_WEIGHT>
700.7774

> <EXACT_MASS>
700.329708282

> <JCHEM_ACCEPTOR_COUNT>
9

> <JCHEM_ATOM_COUNT>
93

> <JCHEM_AVERAGE_POLARIZABILITY>
73.83042930723754

> <JCHEM_BIOAVAILABILITY>
0

> <JCHEM_DONOR_COUNT>
1

> <JCHEM_FORMAL_CHARGE>
0

> <JCHEM_GHOSE_FILTER>
0

> <JCHEM_IUPAC>
4-{4-[4-(4-{[(3R,5R)-5-(2,4-difluorophenyl)-5-[(1H-1,2,4-triazol-1-yl)methyl]oxolan-3-yl]methoxy}phenyl)piperazin-1-yl]phenyl}-1-[(2S,3S)-2-hydroxypentan-3-yl]-4,5-dihydro-1H-1,2,4-triazol-5-one

> <ALOGPS_LOGP>
4.71

> <JCHEM_LOGP>
5.406185238

> <ALOGPS_LOGS>
-4.77

> <JCHEM_MDDR_LIKE_RULE>
1

> <JCHEM_NUMBER_OF_RINGS>
7

> <JCHEM_PHYSIOLOGICAL_CHARGE>
0

> <JCHEM_PKA_STRONGEST_ACIDIC>
14.826501017537103

> <JCHEM_PKA_STRONGEST_BASIC>
3.9255232532955855

> <JCHEM_POLAR_SURFACE_AREA>
111.79000000000002

> <JCHEM_REFRACTIVITY>
200.70579999999995

> <JCHEM_ROTATABLE_BOND_COUNT>
12

> <JCHEM_RULE_OF_FIVE>
0

> <ALOGPS_SOLUBILITY>
1.20e-02 g/l

> <JCHEM_TRADITIONAL_IUPAC>
posaconazole

> <JCHEM_VEBER_RULE>
0

> <DRUGBANK_ID>
DB01263

> <DRUG_GROUPS>
approved; investigational; vet_approved

> <GENERIC_NAME>
Posaconazole

> <SYNONYMS>
Posaconazole

> <PRODUCTS>
Noxafil; Posaconazole; Posaconazole Sp; Posanol; Sandoz Posaconazole

$$$$
19910
  -OEChem-10051719353D

 20 21  0     0  0  0  0  0  0999 V2000
    2.5229    2.1997    0.0005 O   0  0  0  0  0  0  0  0  0  0  0  0
   -3.4820    0.5549    0.0011 O   0  5  0  0  0  0  0  0  0  0  0  0
   -2.5989   -1.4596   -0.0006 O   0  0  0  0  0  0  0  0  0  0  0  0
    2.3816   -0.5497    0.0001 N   0  0  0  0  0  0  0  0  0  0  0  0
   -2.4937   -0.2126    0.0003 N   0  3  0  0  0  0  0  0  0  0  0  0
   -0.0253   -0.4298   -0.0003 C   0  0  0  0  0  0  0  0  0  0  0  0
    1.2481    0.1770   -0.0001 C   0  0  0  0  0  0  0  0  0  0  0  0
   -1.1877    0.3598   -0.0006 C   0  0  0  0  0  0  0  0  0  0  0  0
    1.3107    1.5678   -0.0001 C   0  0  0  0  0  0  0  0  0  0  0  0
   -1.0958    1.7487   -0.0005 C   0  0  0  0  0  0  0  0  0  0  0  0
   -0.0889   -1.8298    0.0000 C   0  0  0  0  0  0  0  0  0  0  0  0
    0.1552    2.3530   -0.0001 C   0  0  0  0  0  0  0  0  0  0  0  0
    1.0773   -2.5813    0.0002 C   0  0  0  0  0  0  0  0  0  0  0  0
    2.2766   -1.8983    0.0002 C   0  0  0  0  0  0  0  0  0  0  0  0
   -1.9678    2.3970   -0.0005 H   0  0  0  0  0  0  0  0  0  0  0  0
   -0.9434   -2.4825    0.0001 H   0  0  0  0  0  0  0  0  0  0  0  0
    0.2297    3.4372    0.0001 H   0  0  0  0  0  0  0  0  0  0  0  0
    1.0509   -3.6650    0.0005 H   0  0  0  0  0  0  0  0  0  0  0  0
    3.2209   -2.4328    0.0004 H   0  0  0  0  0  0  0  0  0  0  0  0
    3.2210    1.5220    0.0006 H   0  0  0  0  0  0  0  0  0  0  0  0
  1  9  1  0  0  0  0
  1 20  1  0  0  0  0
  2  5  1  0  0  0  0
  3  5  2  0  0  0  0
  4  7  1  0  0  0  0
  4 14  2  0  0  0  0
  5  8  1  0  0  0  0
  6  7  1  0  0  0  0
  6  8  2  0  0  0  0
  6 11  1  0  0  0  0
  7  9  2  0  0  0  0
  8 10  1  0  0  0  0
  9 12  1  0  0  0  0
 10 12  2  0  0  0  0
 10 15  1  0  0  0  0
 11 13  2  0  0  0  0
 11 16  1  0  0  0  0
 12 17  1  0  0  0  0
 13 14  1  0  0  0  0
 13 18  1  0  0  0  0
 14 19  1  0  0  0  0
M  CHG  2   2  -1   5   1
M  END
> <DATABASE_ID>
DB01422

> <DATABASE_NAME>
drugbank

> <ORIGINAL_SOURCE>
PUBCHEM

> <ORIGINAL_SOURCE_URL>
https://pubchem.ncbi.nlm.nih.gov/rest/pug/compound/inchikey/RJIWZDNTCBHXAL-UHFFFAOYSA-N/SDF?record_type=3d

> <SMILES>
OC1=C2N=CC=CC2=C(C=C1)[N+]([O-])=O

> <INCHI_IDENTIFIER>
InChI=1S/C9H6N2O3/c12-8-4-3-7(11(13)14)6-2-1-5-10-9(6)8/h1-5,12H

> <INCHI_KEY>
RJIWZDNTCBHXAL-UHFFFAOYSA-N

> <FORMULA>
C9H6N2O3

> <MOLECULAR_WEIGHT>
190.1555

> <EXACT_MASS>
190.037842068

> <JCHEM_ACCEPTOR_COUNT>
4

> <JCHEM_AVERAGE_POLARIZABILITY>
17.163202295729285

> <JCHEM_BIOAVAILABILITY>
1

> <JCHEM_DONOR_COUNT>
1

> <JCHEM_FORMAL_CHARGE>
0

> <JCHEM_GHOSE_FILTER>
1

> <JCHEM_IUPAC>
5-nitroquinolin-8-ol

> <ALOGPS_LOGP>
1.90

> <JCHEM_LOGP>
1.767319339

> <ALOGPS_LOGS>
-1.84

> <JCHEM_MDDR_LIKE_RULE>
0

> <JCHEM_NUMBER_OF_RINGS>
2

> <JCHEM_PHYSIOLOGICAL_CHARGE>
-1

> <JCHEM_PKA_STRONGEST_ACIDIC>
6.8755887406986

> <JCHEM_PKA_STRONGEST_BASIC>
2.08166459790019

> <JCHEM_POLAR_SURFACE_AREA>
78.94

> <JCHEM_REFRACTIVITY>
49.284900000000015

> <JCHEM_ROTATABLE_BOND_COUNT>
1

> <JCHEM_RULE_OF_FIVE>
1

> <ALOGPS_SOLUBILITY>
2.73e+00 g/l

> <JCHEM_TRADITIONAL_IUPAC>
nitroxoline

> <JCHEM_VEBER_RULE>
0

$$$$
65482
  -OEChem-10051719443D

 50 52  0     1  0  0  0  0  0999 V2000
   -0.4428    1.4785   -0.8664 O   0  0  0  0  0  0  0  0  0  0  0  0
   -1.0716    3.8088    1.7951 O   0  0  0  0  0  0  0  0  0  0  0  0
   -2.6028    3.8158   -0.4605 O   0  0  0  0  0  0  0  0  0  0  0  0
    3.9919   -0.8637   -1.9643 O   0  0  0  0  0  0  0  0  0  0  0  0
    5.2024   -2.3453   -0.7485 O   0  0  0  0  0  0  0  0  0  0  0  0
   -2.4613    0.2301   -0.8257 N   0  0  0  0  0  0  0  0  0  0  0  0
    2.7282    3.0169   -0.8362 N   0  0  0  0  0  0  0  0  0  0  0  0
   -3.8675   -1.4723   -1.1456 N   0  0  0  0  0  0  0  0  0  0  0  0
   -0.8975   -0.8085    0.7164 N   0  0  0  0  0  0  0  0  0  0  0  0
    3.0033   -2.5728    0.9763 N   0  0  0  0  0  0  0  0  0  0  0  0
   -1.5261   -3.1168    1.1983 N   0  0  0  0  0  0  0  0  0  0  0  0
   -3.4547   -4.1520    0.2306 N   0  0  0  0  0  0  0  0  0  0  0  0
    0.0124    2.4230    0.1162 C   0  0  1  0  0  0  0  0  0  0  0  0
   -1.1570    2.6015    1.0689 C   0  0  2  0  0  0  0  0  0  0  0  0
   -2.3483    2.5429    0.1313 C   0  0  2  0  0  0  0  0  0  0  0  0
   -1.8812    1.5682   -0.9511 C   0  0  1  0  0  0  0  0  0  0  0  0
    1.2677    1.8989    0.7903 C   0  0  0  0  0  0  0  0  0  0  0  0
    2.4585    1.7374   -0.1715 C   0  0  2  0  0  0  0  0  0  0  0  0
    3.7563    1.2023    0.4691 C   0  0  0  0  0  0  0  0  0  0  0  0
    3.6294   -0.1612    1.1704 C   0  0  0  0  0  0  0  0  0  0  0  0
   -1.9863   -0.8032   -0.0672 C   0  0  0  0  0  0  0  0  0  0  0  0
   -3.5930   -0.2219   -1.4537 C   0  0  0  0  0  0  0  0  0  0  0  0
    3.2216   -1.3231    0.2485 C   0  0  1  0  0  0  0  0  0  0  0  0
   -2.8713   -1.8481   -0.2799 C   0  0  0  0  0  0  0  0  0  0  0  0
   -2.6100   -3.0397    0.3890 C   0  0  0  0  0  0  0  0  0  0  0  0
    4.2483   -1.5833   -0.8400 C   0  0  0  0  0  0  0  0  0  0  0  0
   -0.7488   -2.0127    1.3101 C   0  0  0  0  0  0  0  0  0  0  0  0
    0.2164    3.3731   -0.3930 H   0  0  0  0  0  0  0  0  0  0  0  0
   -1.2039    1.7664    1.7776 H   0  0  0  0  0  0  0  0  0  0  0  0
   -3.2646    2.2386    0.6474 H   0  0  0  0  0  0  0  0  0  0  0  0
   -2.1257    1.9192   -1.9607 H   0  0  0  0  0  0  0  0  0  0  0  0
    1.0511    0.9253    1.2412 H   0  0  0  0  0  0  0  0  0  0  0  0
    1.5513    2.5720    1.6096 H   0  0  0  0  0  0  0  0  0  0  0  0
    2.1605    1.0419   -0.9638 H   0  0  0  0  0  0  0  0  0  0  0  0
    4.5502    1.1488   -0.2862 H   0  0  0  0  0  0  0  0  0  0  0  0
    4.1052    1.9269    1.2176 H   0  0  0  0  0  0  0  0  0  0  0  0
   -1.9006    3.9082    2.2935 H   0  0  0  0  0  0  0  0  0  0  0  0
    4.6023   -0.3924    1.6250 H   0  0  0  0  0  0  0  0  0  0  0  0
    2.9198   -0.0789    2.0024 H   0  0  0  0  0  0  0  0  0  0  0  0
   -3.3468    3.7053   -1.0770 H   0  0  0  0  0  0  0  0  0  0  0  0
    3.5120    2.9114   -1.4793 H   0  0  0  0  0  0  0  0  0  0  0  0
    3.0217    3.7064   -0.1449 H   0  0  0  0  0  0  0  0  0  0  0  0
   -4.1727    0.4031   -2.1192 H   0  0  0  0  0  0  0  0  0  0  0  0
    2.2675   -1.0893   -0.2373 H   0  0  0  0  0  0  0  0  0  0  0  0
    2.3387   -2.4196    1.7326 H   0  0  0  0  0  0  0  0  0  0  0  0
    2.5808   -3.2631    0.3566 H   0  0  0  0  0  0  0  0  0  0  0  0
    0.1006   -2.1057    1.9769 H   0  0  0  0  0  0  0  0  0  0  0  0
   -3.2430   -5.0071    0.7265 H   0  0  0  0  0  0  0  0  0  0  0  0
   -4.2635   -4.0972   -0.3736 H   0  0  0  0  0  0  0  0  0  0  0  0
    4.6565   -1.0326   -2.6657 H   0  0  0  0  0  0  0  0  0  0  0  0
  1 13  1  0  0  0  0
  1 16  1  0  0  0  0
  2 14  1  0  0  0  0
  2 37  1  0  0  0  0
  3 15  1  0  0  0  0
  3 40  1  0  0  0  0
  4 26  1  0  0  0  0
  4 50  1  0  0  0  0
  5 26  2  0  0  0  0
  6 16  1  0  0  0  0
  6 21  1  0  0  0  0
  6 22  1  0  0  0  0
  7 18  1  0  0  0  0
  7 41  1  0  0  0  0
  7 42  1  0  0  0  0
  8 22  2  0  0  0  0
  8 24  1  0  0  0  0
  9 21  2  0  0  0  0
  9 27  1  0  0  0  0
 10 23  1  0  0  0  0
 10 45  1  0  0  0  0
 10 46  1  0  0  0  0
 11 25  1  0  0  0  0
 11 27  2  0  0  0  0
 12 25  1  0  0  0  0
 12 48  1  0  0  0  0
 12 49  1  0  0  0  0
 13 14  1  0  0  0  0
 13 17  1  0  0  0  0
 13 28  1  0  0  0  0
 14 15  1  0  0  0  0
 14 29  1  0  0  0  0
 15 16  1  0  0  0  0
 15 30  1  0  0  0  0
 16 31  1  0  0  0  0
 17 18  1  0  0  0  0
 17 32  1  0  0  0  0
 17 33  1  0  0  0  0
 18 19  1  0  0  0  0
 18 34  1  0  0  0  0
 19 20  1  0  0  0  0
 19 35  1  0  0  0  0
 19 36  1  0  0  0  0
 20 23  1  0  0  0  0
 20 38  1  0  0  0  0
 20 39  1  0  0  0  0
 21 24  1  0  0  0  0
 22 43  1  0  0  0  0
 23 26  1  0  0  0  0
 23 44  1  0  0  0  0
 24 25  2  0  0  0  0
 27 47  1  0  0  0  0
M  END
> <DATABASE_ID>
DB01910

> <DATABASE_NAME>
drugbank

> <ORIGINAL_SOURCE>
PUBCHEM

> <ORIGINAL_SOURCE_URL>
https://pubchem.ncbi.nlm.nih.gov/rest/pug/compound/inchikey/LMXOHSDXUQEUSF-YECHIGJVSA-N/SDF?record_type=3d

> <SMILES>
[H][C@](N)(CC[C@]([H])(N)C(O)=O)C[C@@]1([H])O[C@@]([H])(N2C=NC3=C(N)N=CN=C23)[C@]([H])(O)[C@]1([H])O

> <INCHI_IDENTIFIER>
InChI=1S/C15H23N7O5/c16-6(1-2-7(17)15(25)26)3-8-10(23)11(24)14(27-8)22-5-21-9-12(18)19-4-20-13(9)22/h4-8,10-11,14,23-24H,1-3,16-17H2,(H,25,26)(H2,18,19,20)/t6-,7-,8+,10+,11+,14+/m0/s1

> <INCHI_KEY>
LMXOHSDXUQEUSF-YECHIGJVSA-N

> <FORMULA>
C15H23N7O5

> <MOLECULAR_WEIGHT>
381.387

> <EXACT_MASS>
381.176066881

> <JCHEM_ACCEPTOR_COUNT>
11

> <JCHEM_AVERAGE_POLARIZABILITY>
37.68650181215635

> <JCHEM_BIOAVAILABILITY>
0

> <JCHEM_DONOR_COUNT>
6

> <JCHEM_FORMAL_CHARGE>
0

> <JCHEM_GHOSE_FILTER>
0

> <JCHEM_IUPAC>
(2S,5S)-2,5-diamino-6-[(2R,3S,4R,5R)-5-(6-amino-9H-purin-9-yl)-3,4-dihydroxyoxolan-2-yl]hexanoic acid

> <ALOGPS_LOGP>
-3.05

> <JCHEM_LOGP>
-5.138679707504106

> <ALOGPS_LOGS>
-1.92

> <JCHEM_MDDR_LIKE_RULE>
1

> <JCHEM_NUMBER_OF_RINGS>
3

> <JCHEM_PHYSIOLOGICAL_CHARGE>
1

> <JCHEM_PKA>
12.48129078946981

> <JCHEM_PKA_STRONGEST_ACIDIC>
1.9480808652263852

> <JCHEM_PKA_STRONGEST_BASIC>
10.180208209426675

> <JCHEM_POLAR_SURFACE_AREA>
208.64999999999995

> <JCHEM_REFRACTIVITY>
92.67839999999998

> <JCHEM_ROTATABLE_BOND_COUNT>
7

> <JCHEM_RULE_OF_FIVE>
0

> <ALOGPS_SOLUBILITY>
4.63e+00 g/l

> <JCHEM_TRADITIONAL_IUPAC>
sinefungin

> <JCHEM_VEBER_RULE>
0

$$$$
6989
  -OEChem-10051719563D

 25 25  0     0  0  0  0  0  0999 V2000
   -0.4292    2.3458    0.0002 O   0  0  0  0  0  0  0  0  0  0  0  0
   -2.1355    0.0547    0.0000 C   0  0  0  0  0  0  0  0  0  0  0  0
   -0.6457   -0.0413    0.0000 C   0  0  0  0  0  0  0  0  0  0  0  0
   -2.7641   -0.5675    1.2605 C   0  0  0  0  0  0  0  0  0  0  0  0
   -2.7643   -0.5674   -1.2605 C   0  0  0  0  0  0  0  0  0  0  0  0
    0.1430    1.1093   -0.0001 C   0  0  0  0  0  0  0  0  0  0  0  0
   -0.0435   -1.2995    0.0000 C   0  0  0  0  0  0  0  0  0  0  0  0
    2.1358   -0.2566    0.0000 C   0  0  0  0  0  0  0  0  0  0  0  0
    1.5336    1.0016    0.0000 C   0  0  0  0  0  0  0  0  0  0  0  0
    1.3473   -1.4072    0.0000 C   0  0  0  0  0  0  0  0  0  0  0  0
    3.6226   -0.3719   -0.0001 C   0  0  0  0  0  0  0  0  0  0  0  0
   -2.4660    1.0979    0.0133 H   0  0  0  0  0  0  0  0  0  0  0  0
   -2.5940   -1.6482    1.3137 H   0  0  0  0  0  0  0  0  0  0  0  0
   -3.8469   -0.4017    1.2722 H   0  0  0  0  0  0  0  0  0  0  0  0
   -2.3455   -0.1167    2.1671 H   0  0  0  0  0  0  0  0  0  0  0  0
   -2.3483   -0.1132   -2.1667 H   0  0  0  0  0  0  0  0  0  0  0  0
   -3.8475   -0.4038   -1.2701 H   0  0  0  0  0  0  0  0  0  0  0  0
   -2.5917   -1.6475   -1.3159 H   0  0  0  0  0  0  0  0  0  0  0  0
   -0.6363   -2.2100    0.0005 H   0  0  0  0  0  0  0  0  0  0  0  0
    2.1434    1.9020    0.0017 H   0  0  0  0  0  0  0  0  0  0  0  0
    1.8047   -2.3930    0.0019 H   0  0  0  0  0  0  0  0  0  0  0  0
    4.0835    0.4669   -0.5326 H   0  0  0  0  0  0  0  0  0  0  0  0
    3.9984   -0.3845    1.0278 H   0  0  0  0  0  0  0  0  0  0  0  0
    3.9485   -1.2884   -0.5038 H   0  0  0  0  0  0  0  0  0  0  0  0
   -1.1636    2.3514   -0.6359 H   0  0  0  0  0  0  0  0  0  0  0  0
  1  6  1  0  0  0  0
  1 25  1  0  0  0  0
  2  3  1  0  0  0  0
  2  4  1  0  0  0  0
  2  5  1  0  0  0  0
  2 12  1  0  0  0  0
  3  6  2  0  0  0  0
  3  7  1  0  0  0  0
  4 13  1  0  0  0  0
  4 14  1  0  0  0  0
  4 15  1  0  0  0  0
  5 16  1  0  0  0  0
  5 17  1  0  0  0  0
  5 18  1  0  0  0  0
  6  9  1  0  0  0  0
  7 10  2  0  0  0  0
  7 19  1  0  0  0  0
  8  9  2  0  0  0  0
  8 10  1  0  0  0  0
  8 11  1  0  0  0  0
  9 20  1  0  0  0  0
 10 21  1  0  0  0  0
 11 22  1  0  0  0  0
 11 23  1  0  0  0  0
 11 24  1  0  0  0  0
M  END
> <DATABASE_ID>
DB02513

> <DATABASE_NAME>
drugbank

> <ORIGINAL_SOURCE>
PUBCHEM

> <ORIGINAL_SOURCE_URL>
https://pubchem.ncbi.nlm.nih.gov/rest/pug/compound/inchikey/MGSRCZKZVOBKFT-UHFFFAOYSA-N/SDF?record_type=3d

> <SMILES>
CC(C)C1=C(O)C=C(C)C=C1

> <INCHI_IDENTIFIER>
InChI=1S/C10H14O/c1-7(2)9-5-4-8(3)6-10(9)11/h4-7,11H,1-3H3

> <INCHI_KEY>
MGSRCZKZVOBKFT-UHFFFAOYSA-N

> <FORMULA>
C10H14O

> <MOLECULAR_WEIGHT>
150.221

> <EXACT_MASS>
150.104465071

> <JCHEM_ACCEPTOR_COUNT>
1

> <JCHEM_ATOM_COUNT>
25

> <JCHEM_AVERAGE_POLARIZABILITY>
17.841403772475083

> <JCHEM_BIOAVAILABILITY>
1

> <JCHEM_DONOR_COUNT>
1

> <JCHEM_FORMAL_CHARGE>
0

> <JCHEM_GHOSE_FILTER>
0

> <JCHEM_IUPAC>
5-methyl-2-(propan-2-yl)phenol

> <ALOGPS_LOGP>
3.16

> <JCHEM_LOGP>
3.428111034333333

> <ALOGPS_LOGS>
-2.37

> <JCHEM_MDDR_LIKE_RULE>
0

> <JCHEM_NUMBER_OF_RINGS>
1

> <JCHEM_PHYSIOLOGICAL_CHARGE>
0

> <JCHEM_PKA_STRONGEST_ACIDIC>
10.592932954134925

> <JCHEM_PKA_STRONGEST_BASIC>
-5.231344648281415

> <JCHEM_POLAR_SURFACE_AREA>
20.23

> <JCHEM_REFRACTIVITY>
47.270900000000005

> <JCHEM_ROTATABLE_BOND_COUNT>
1

> <JCHEM_RULE_OF_FIVE>
1

> <ALOGPS_SOLUBILITY>
6.43e-01 g/l

> <JCHEM_TRADITIONAL_IUPAC>
thymol

> <JCHEM_VEBER_RULE>
1

$$$$
91665
  -OEChem-10051720013D

 24 26  0     0  0  0  0  0  0999 V2000
   -3.2974    0.3615   -0.0928 O   0  0  0  0  0  0  0  0  0  0  0  0
   -1.0104    0.6540   -0.0181 N   0  0  0  0  0  0  0  0  0  0  0  0
    0.2608    0.0971    0.0019 C   0  0  0  0  0  0  0  0  0  0  0  0
   -0.8832    2.1134   -0.1208 C   0  0  0  0  0  0  0  0  0  0  0  0
    0.6182    2.4355    0.0689 C   0  0  0  0  0  0  0  0  0  0  0  0
    1.2421    1.0750    0.0369 C   0  0  0  0  0  0  0  0  0  0  0  0
    0.5167   -1.2579   -0.0490 C   0  0  0  0  0  0  0  0  0  0  0  0
   -0.6459   -2.1848   -0.2172 C   0  0  0  0  0  0  0  0  0  0  0  0
   -1.9373   -1.5780    0.3502 C   0  0  0  0  0  0  0  0  0  0  0  0
   -2.1624   -0.0997    0.0209 C   0  0  0  0  0  0  0  0  0  0  0  0
    2.5704    0.6992    0.0555 C   0  0  0  0  0  0  0  0  0  0  0  0
    1.8551   -1.6446   -0.0495 C   0  0  0  0  0  0  0  0  0  0  0  0
    2.8732   -0.6707    0.0132 C   0  0  0  0  0  0  0  0  0  0  0  0
   -1.5161    2.5951    0.6316 H   0  0  0  0  0  0  0  0  0  0  0  0
   -1.2396    2.4158   -1.1122 H   0  0  0  0  0  0  0  0  0  0  0  0
    0.7926    2.9133    1.0382 H   0  0  0  0  0  0  0  0  0  0  0  0
    0.9889    3.0792   -0.7339 H   0  0  0  0  0  0  0  0  0  0  0  0
   -0.7759   -2.3801   -1.2887 H   0  0  0  0  0  0  0  0  0  0  0  0
   -0.4478   -3.1422    0.2777 H   0  0  0  0  0  0  0  0  0  0  0  0
   -1.9248   -1.6528    1.4453 H   0  0  0  0  0  0  0  0  0  0  0  0
   -2.7976   -2.1529   -0.0100 H   0  0  0  0  0  0  0  0  0  0  0  0
    3.3641    1.4373    0.0948 H   0  0  0  0  0  0  0  0  0  0  0  0
    2.1252   -2.6954   -0.1095 H   0  0  0  0  0  0  0  0  0  0  0  0
    3.9131   -0.9881    0.0162 H   0  0  0  0  0  0  0  0  0  0  0  0
  1 10  2  0  0  0  0
  2  3  1  0  0  0  0
  2  4  1  0  0  0  0
  2 10  1  0  0  0  0
  3  6  1  0  0  0  0
  3  7  2  0  0  0  0
  4  5  1  0  0  0  0
  4 14  1  0  0  0  0
  4 15  1  0  0  0  0
  5  6  1  0  0  0  0
  5 16  1  0  0  0  0
  5 17  1  0  0  0  0
  6 11  2  0  0  0  0
  7  8  1  0  0  0  0
  7 12  1  0  0  0  0
  8  9  1  0  0  0  0
  8 18  1  0  0  0  0
  8 19  1  0  0  0  0
  9 10  1  0  0  0  0
  9 20  1  0  0  0  0
  9 21  1  0  0  0  0
 11 13  1  0  0  0  0
 11 22  1  0  0  0  0
 12 13  2  0  0  0  0
 12 23  1  0  0  0  0
 13 24  1  0  0  0  0
M  END
> <DATABASE_ID>
DB02756

> <DATABASE_NAME>
drugbank

> <ORIGINAL_SOURCE>
PUBCHEM

> <ORIGINAL_SOURCE_URL>
https://pubchem.ncbi.nlm.nih.gov/rest/pug/compound/inchikey/XRJLAOUDSILTFT-UHFFFAOYSA-N/SDF?record_type=3d

> <SMILES>
O=C1CCC2=CC=CC3=C2N1CC3

> <INCHI_IDENTIFIER>
InChI=1S/C11H11NO/c13-10-5-4-8-2-1-3-9-6-7-12(10)11(8)9/h1-3H,4-7H2

> <INCHI_KEY>
XRJLAOUDSILTFT-UHFFFAOYSA-N

> <FORMULA>
C11H11NO

> <MOLECULAR_WEIGHT>
173.2111

> <EXACT_MASS>
173.084063979

> <JCHEM_ACCEPTOR_COUNT>
1

> <JCHEM_AVERAGE_POLARIZABILITY>
18.78977771088972

> <JCHEM_BIOAVAILABILITY>
1

> <JCHEM_DONOR_COUNT>
0

> <JCHEM_FORMAL_CHARGE>
0

> <JCHEM_GHOSE_FILTER>
1

> <JCHEM_IUPAC>
1-azatricyclo[6.3.1.0⁴,¹²]dodeca-4(12),5,7-trien-11-one

> <ALOGPS_LOGP>
1.10

> <JCHEM_LOGP>
1.4205734269999997

> <ALOGPS_LOGS>
-1.19

> <JCHEM_MDDR_LIKE_RULE>
0

> <JCHEM_NUMBER_OF_RINGS>
3

> <JCHEM_PHYSIOLOGICAL_CHARGE>
0

> <JCHEM_PKA_STRONGEST_BASIC>
-3.4964955335292154

> <JCHEM_POLAR_SURFACE_AREA>
20.310000000000002

> <JCHEM_REFRACTIVITY>
50.61140000000001

> <JCHEM_ROTATABLE_BOND_COUNT>
0

> <JCHEM_RULE_OF_FIVE>
1

> <ALOGPS_SOLUBILITY>
1.13e+01 g/l

> <JCHEM_TRADITIONAL_IUPAC>
pyroquilon

> <JCHEM_VEBER_RULE>
1

$$$$
2969
  -OEChem-10051720183D

 32 31  0     0  0  0  0  0  0999 V2000
   -5.7761    0.7175   -0.0524 O   0  0  0  0  0  0  0  0  0  0  0  0
   -4.8040   -1.3327    0.0216 O   0  0  0  0  0  0  0  0  0  0  0  0
    1.7308    0.4378    0.0702 C   0  0  0  0  0  0  0  0  0  0  0  0
    0.3942   -0.3082    0.0035 C   0  0  0  0  0  0  0  0  0  0  0  0
    2.9856   -0.4366   -0.0098 C   0  0  0  0  0  0  0  0  0  0  0  0
   -0.8611    0.5697    0.0280 C   0  0  0  0  0  0  0  0  0  0  0  0
    4.2882    0.3656    0.0127 C   0  0  0  0  0  0  0  0  0  0  0  0
   -2.1646   -0.2360    0.0403 C   0  0  0  0  0  0  0  0  0  0  0  0
    5.5066   -0.5555   -0.0628 C   0  0  0  0  0  0  0  0  0  0  0  0
   -3.4030    0.6600   -0.0210 C   0  0  0  0  0  0  0  0  0  0  0  0
    6.8053    0.2331   -0.0090 C   0  0  0  0  0  0  0  0  0  0  0  0
   -4.7022   -0.1148   -0.0212 C   0  0  0  0  0  0  0  0  0  0  0  0
    1.7623    1.0179    1.0011 H   0  0  0  0  0  0  0  0  0  0  0  0
    1.7602    1.1675   -0.7490 H   0  0  0  0  0  0  0  0  0  0  0  0
    0.3497   -1.0120    0.8443 H   0  0  0  0  0  0  0  0  0  0  0  0
    0.3775   -0.9170   -0.9093 H   0  0  0  0  0  0  0  0  0  0  0  0
    2.9450   -1.0335   -0.9293 H   0  0  0  0  0  0  0  0  0  0  0  0
    2.9783   -1.1451    0.8277 H   0  0  0  0  0  0  0  0  0  0  0  0
   -0.8306    1.2165    0.9134 H   0  0  0  0  0  0  0  0  0  0  0  0
   -0.8484    1.2301   -0.8477 H   0  0  0  0  0  0  0  0  0  0  0  0
    4.3026    1.0670   -0.8302 H   0  0  0  0  0  0  0  0  0  0  0  0
    4.3329    0.9628    0.9315 H   0  0  0  0  0  0  0  0  0  0  0  0
   -2.2031   -0.8567    0.9441 H   0  0  0  0  0  0  0  0  0  0  0  0
   -2.1743   -0.9264   -0.8124 H   0  0  0  0  0  0  0  0  0  0  0  0
    5.4864   -1.2693    0.7691 H   0  0  0  0  0  0  0  0  0  0  0  0
    5.4762   -1.1378   -0.9911 H   0  0  0  0  0  0  0  0  0  0  0  0
   -3.4107    1.3305    0.8457 H   0  0  0  0  0  0  0  0  0  0  0  0
   -3.3732    1.2642   -0.9347 H   0  0  0  0  0  0  0  0  0  0  0  0
    6.8721    0.9362   -0.8454 H   0  0  0  0  0  0  0  0  0  0  0  0
    7.6629   -0.4445   -0.0655 H   0  0  0  0  0  0  0  0  0  0  0  0
    6.8816    0.8005    0.9241 H   0  0  0  0  0  0  0  0  0  0  0  0
   -6.6227    0.2221   -0.0425 H   0  0  0  0  0  0  0  0  0  0  0  0
  1 12  1  0  0  0  0
  1 32  1  0  0  0  0
  2 12  2  0  0  0  0
  3  4  1  0  0  0  0
  3  5  1  0  0  0  0
  3 13  1  0  0  0  0
  3 14  1  0  0  0  0
  4  6  1  0  0  0  0
  4 15  1  0  0  0  0
  4 16  1  0  0  0  0
  5  7  1  0  0  0  0
  5 17  1  0  0  0  0
  5 18  1  0  0  0  0
  6  8  1  0  0  0  0
  6 19  1  0  0  0  0
  6 20  1  0  0  0  0
  7  9  1  0  0  0  0
  7 21  1  0  0  0  0
  7 22  1  0  0  0  0
  8 10  1  0  0  0  0
  8 23  1  0  0  0  0
  8 24  1  0  0  0  0
  9 11  1  0  0  0  0
  9 25  1  0  0  0  0
  9 26  1  0  0  0  0
 10 12  1  0  0  0  0
 10 27  1  0  0  0  0
 10 28  1  0  0  0  0
 11 29  1  0  0  0  0
 11 30  1  0  0  0  0
 11 31  1  0  0  0  0
M  END
> <DATABASE_ID>
DB03600

> <DATABASE_NAME>
drugbank

> <ORIGINAL_SOURCE>
PUBCHEM

> <ORIGINAL_SOURCE_URL>
https://pubchem.ncbi.nlm.nih.gov/rest/pug/compound/inchikey/GHVNFZFCNZKVNT-UHFFFAOYSA-N/SDF?record_type=3d

> <SMILES>
CCCCCCCCCC(O)=O

> <INCHI_IDENTIFIER>
InChI=1S/C10H20O2/c1-2-3-4-5-6-7-8-9-10(11)12/h2-9H2,1H3,(H,11,12)

> <INCHI_KEY>
GHVNFZFCNZKVNT-UHFFFAOYSA-N

> <FORMULA>
C10H20O2

> <MOLECULAR_WEIGHT>
172.2646

> <EXACT_MASS>
172.146329884

> <JCHEM_ACCEPTOR_COUNT>
2

> <JCHEM_AVERAGE_POLARIZABILITY>
21.60666350635801

> <JCHEM_BIOAVAILABILITY>
1

> <JCHEM_DONOR_COUNT>
1

> <JCHEM_FORMAL_CHARGE>
0

> <JCHEM_GHOSE_FILTER>
1

> <JCHEM_IUPAC>
decanoic acid

> <ALOGPS_LOGP>
3.93

> <JCHEM_LOGP>
3.5891707876666663

> <ALOGPS_LOGS>
-3.26

> <JCHEM_MDDR_LIKE_RULE>
0

> <JCHEM_NUMBER_OF_RINGS>
0

> <JCHEM_PHYSIOLOGICAL_CHARGE>
-1

> <JCHEM_PKA_STRONGEST_ACIDIC>
4.952019655228562

> <JCHEM_POLAR_SURFACE_AREA>
37.3

> <JCHEM_REFRACTIVITY>
49.477599999999995

> <JCHEM_ROTATABLE_BOND_COUNT>
8

> <JCHEM_RULE_OF_FIVE>
1

> <ALOGPS_SOLUBILITY>
9.46e-02 g/l

> <JCHEM_TRADITIONAL_IUPAC>
capric acid

> <JCHEM_VEBER_RULE>
1

$$$$
6323491
  -OEChem-02252018103D

 42 44  0     1  0  0  0  0  0999 V2000
   -4.5885    0.9870    0.2134 Cl  0  0  0  0  0  0  0  0  0  0  0  0
    4.4824   -0.0400    1.9510 O   0  0  0  0  0  0  0  0  0  0  0  0
    1.2519   -1.3148   -0.5347 O   0  0  0  0  0  0  0  0  0  0  0  0
    0.3520   -0.1877   -2.3300 O   0  0  0  0  0  0  0  0  0  0  0  0
   -0.2913   -3.0209    0.3731 O   0  0  0  0  0  0  0  0  0  0  0  0
   -2.1172    3.2136    0.1919 O   0  0  0  0  0  0  0  0  0  0  0  0
   -4.5151   -1.4916    1.7371 O   0  0  0  0  0  0  0  0  0  0  0  0
    3.3815   -0.5000    1.1767 C   0  0  1  0  0  0  0  0  0  0  0  0
    3.9365    0.9159    1.0260 C   0  0  1  0  0  0  0  0  0  0  0  0
    3.6009   -1.4957    0.0899 C   0  0  0  0  0  0  0  0  0  0  0  0
    2.6019   -1.2670   -1.0673 C   0  0  1  0  0  0  0  0  0  0  0  0
    2.8538    1.8876    1.2417 C   0  0  0  0  0  0  0  0  0  0  0  0
    2.7630   -2.3524   -2.1266 C   0  0  0  0  0  0  0  0  0  0  0  0
    2.1425    2.3628    0.2064 C   0  0  0  0  0  0  0  0  0  0  0  0
    0.2434   -0.7323   -1.2452 C   0  0  0  0  0  0  0  0  0  0  0  0
   -1.0369   -0.8577   -0.4864 C   0  0  0  0  0  0  0  0  0  0  0  0
   -2.0839    0.0923   -0.5661 C   0  0  0  0  0  0  0  0  0  0  0  0
    0.7615    2.7633    0.3214 C   0  0  0  0  0  0  0  0  0  0  0  0
   -2.0537    1.3732   -1.3727 C   0  0  0  0  0  0  0  0  0  0  0  0
   -1.2039   -2.0039    0.3152 C   0  0  0  0  0  0  0  0  0  0  0  0
   -0.0078    2.7365   -0.7750 C   0  0  0  0  0  0  0  0  0  0  0  0
   -1.4632    2.5309   -0.5903 C   0  0  0  0  0  0  0  0  0  0  0  0
   -3.2482   -0.1319    0.1991 C   0  0  0  0  0  0  0  0  0  0  0  0
   -2.3703   -2.2026    1.0528 C   0  0  0  0  0  0  0  0  0  0  0  0
   -3.3912   -1.2645    0.9987 C   0  0  0  0  0  0  0  0  0  0  0  0
    2.4574   -0.6722    1.7163 H   0  0  0  0  0  0  0  0  0  0  0  0
    4.5728    1.1383    0.1752 H   0  0  0  0  0  0  0  0  0  0  0  0
    4.6289   -1.4459   -0.2880 H   0  0  0  0  0  0  0  0  0  0  0  0
    3.4532   -2.4956    0.5154 H   0  0  0  0  0  0  0  0  0  0  0  0
    2.7779   -0.2794   -1.5101 H   0  0  0  0  0  0  0  0  0  0  0  0
    2.4812    1.9922    2.2577 H   0  0  0  0  0  0  0  0  0  0  0  0
    3.7813   -2.3664   -2.5267 H   0  0  0  0  0  0  0  0  0  0  0  0
    2.5340   -3.3401   -1.7117 H   0  0  0  0  0  0  0  0  0  0  0  0
    2.0695   -2.1944   -2.9587 H   0  0  0  0  0  0  0  0  0  0  0  0
    2.5132    2.1799   -0.8011 H   0  0  0  0  0  0  0  0  0  0  0  0
    0.3272    2.8265    1.3149 H   0  0  0  0  0  0  0  0  0  0  0  0
   -1.4912    1.2308   -2.3000 H   0  0  0  0  0  0  0  0  0  0  0  0
   -3.0372    1.6725   -1.7503 H   0  0  0  0  0  0  0  0  0  0  0  0
    0.3982    2.5523   -1.7642 H   0  0  0  0  0  0  0  0  0  0  0  0
   -2.4771   -3.0997    1.6584 H   0  0  0  0  0  0  0  0  0  0  0  0
    0.3540   -2.9285   -0.3453 H   0  0  0  0  0  0  0  0  0  0  0  0
   -4.4188   -2.3290    2.2221 H   0  0  0  0  0  0  0  0  0  0  0  0
  1 23  1  0  0  0  0
  2  8  1  0  0  0  0
  2  9  1  0  0  0  0
  3 11  1  0  0  0  0
  3 15  1  0  0  0  0
  4 15  2  0  0  0  0
  5 20  1  0  0  0  0
  5 41  1  0  0  0  0
  6 22  2  0  0  0  0
  7 25  1  0  0  0  0
  7 42  1  0  0  0  0
  8  9  1  0  0  0  0
  8 10  1  0  0  0  0
  8 26  1  0  0  0  0
  9 12  1  0  0  0  0
  9 27  1  0  0  0  0
 10 11  1  0  0  0  0
 10 28  1  0  0  0  0
 10 29  1  0  0  0  0
 11 13  1  0  0  0  0
 11 30  1  0  0  0  0
 12 14  2  3  0  0  0
 12 31  1  0  0  0  0
 13 32  1  0  0  0  0
 13 33  1  0  0  0  0
 13 34  1  0  0  0  0
 14 18  1  0  0  0  0
 14 35  1  0  0  0  0
 15 16  1  0  0  0  0
 16 17  2  0  0  0  0
 16 20  1  0  0  0  0
 17 19  1  0  0  0  0
 17 23  1  0  0  0  0
 18 21  2  0  0  0  0
 18 36  1  0  0  0  0
 19 22  1  0  0  0  0
 19 37  1  0  0  0  0
 19 38  1  0  0  0  0
 20 24  2  0  0  0  0
 21 22  1  0  0  0  0
 21 39  1  0  0  0  0
 23 25  2  0  0  0  0
 24 25  1  0  0  0  0
 24 40  1  0  0  0  0
M  END
> <DATABASE_ID>
DB03758

> <DATABASE_NAME>
drugbank

> <ORIGINAL_SOURCE>
PUBCHEM

> <ORIGINAL_SOURCE_URL>
https://pubchem.ncbi.nlm.nih.gov/rest/pug/compound/inchikey/WYZWZEOGROVVHK-GTMNPGAYSA-N/SDF?record_type=3d

> <SMILES>
C[C@@H]1C[C@H]2O[C@@H]2\C=C/C=C/C(=O)CC2=C(Cl)C(O)=CC(O)=C2C(=O)O1

> <INCHI_IDENTIFIER>
InChI=1S/C18H17ClO6/c1-9-6-15-14(25-15)5-3-2-4-10(20)7-11-16(18(23)24-9)12(21)8-13(22)17(11)19/h2-5,8-9,14-15,21-22H,6-7H2,1H3/b4-2+,5-3-/t9-,14-,15-/m1/s1

> <INCHI_KEY>
WYZWZEOGROVVHK-GTMNPGAYSA-N

> <FORMULA>
C18H17ClO6

> <MOLECULAR_WEIGHT>
364.777

> <EXACT_MASS>
364.071365983

> <JCHEM_ACCEPTOR_COUNT>
5

> <JCHEM_ATOM_COUNT>
42

> <JCHEM_AVERAGE_NEUTRAL_MICROSPECIES_CHARGE>
-0.48840436352639927

> <JCHEM_AVERAGE_POLARIZABILITY>
34.5147214469731

> <JCHEM_BIOAVAILABILITY>
1

> <JCHEM_DONOR_COUNT>
2

> <JCHEM_FORMAL_CHARGE>
0

> <JCHEM_GHOSE_FILTER>
1

> <JCHEM_IUPAC>
(4R,6R,8R,9Z,11E)-16-chloro-17,19-dihydroxy-4-methyl-3,7-dioxatricyclo[13.4.0.0^{6,8}]nonadeca-1(19),9,11,15,17-pentaene-2,13-dione

> <ALOGPS_LOGP>
3.22

> <JCHEM_LOGP>
3.6765286639999997

> <ALOGPS_LOGS>
-3.29

> <JCHEM_MDDR_LIKE_RULE>
0

> <JCHEM_NEUTRAL_CHARGE>
0

> <JCHEM_NUMBER_OF_RINGS>
3

> <JCHEM_PHYSIOLOGICAL_CHARGE>
-1

> <JCHEM_PKA>
9.843073231549644

> <JCHEM_PKA_STRONGEST_ACIDIC>
7.022605485153255

> <JCHEM_PKA_STRONGEST_BASIC>
-4.124046059412485

> <JCHEM_POLAR_SURFACE_AREA>
96.35999999999999

> <JCHEM_REFRACTIVITY>
93.56089999999999

> <JCHEM_ROTATABLE_BOND_COUNT>
0

> <JCHEM_RULE_OF_FIVE>
1

> <ALOGPS_SOLUBILITY>
1.88e-01 g/l

> <JCHEM_TRADITIONAL_IUPAC>
mesoxalic acid

> <JCHEM_VEBER_RULE>
0

$$$$
243
  -OEChem-08161916473D

 15 15  0     0  0  0  0  0  0999 V2000
    2.3067   -1.1843    0.0008 O   0  0  0  0  0  0  0  0  0  0  0  0
    2.4571    1.0837   -0.0005 O   0  0  0  0  0  0  0  0  0  0  0  0
    0.3072    0.0339    0.0000 C   0  0  0  0  0  0  0  0  0  0  0  0
   -0.4142    1.2278    0.0003 C   0  0  0  0  0  0  0  0  0  0  0  0
   -0.3662   -1.1878   -0.0003 C   0  0  0  0  0  0  0  0  0  0  0  0
   -1.8088    1.2003    0.0003 C   0  0  0  0  0  0  0  0  0  0  0  0
   -1.7609   -1.2153   -0.0003 C   0  0  0  0  0  0  0  0  0  0  0  0
   -2.4820   -0.0213    0.0000 C   0  0  0  0  0  0  0  0  0  0  0  0
    1.7611    0.0629   -0.0003 C   0  0  0  0  0  0  0  0  0  0  0  0
    0.0914    2.1900    0.0004 H   0  0  0  0  0  0  0  0  0  0  0  0
    0.1555   -2.1407   -0.0006 H   0  0  0  0  0  0  0  0  0  0  0  0
   -2.3706    2.1298    0.0005 H   0  0  0  0  0  0  0  0  0  0  0  0
   -2.2859   -2.1661   -0.0005 H   0  0  0  0  0  0  0  0  0  0  0  0
   -3.5679   -0.0428    0.0000 H   0  0  0  0  0  0  0  0  0  0  0  0
    3.2873   -1.1536    0.0011 H   0  0  0  0  0  0  0  0  0  0  0  0
  1  9  1  0  0  0  0
  1 15  1  0  0  0  0
  2  9  2  0  0  0  0
  3  4  2  0  0  0  0
  3  5  1  0  0  0  0
  3  9  1  0  0  0  0
  4  6  1  0  0  0  0
  4 10  1  0  0  0  0
  5  7  2  0  0  0  0
  5 11  1  0  0  0  0
  6  8  2  0  0  0  0
  6 12  1  0  0  0  0
  7  8  1  0  0  0  0
  7 13  1  0  0  0  0
  8 14  1  0  0  0  0
M  END
> <DATABASE_ID>
DB03793

> <DATABASE_NAME>
drugbank

> <ORIGINAL_SOURCE>
PUBCHEM

> <ORIGINAL_SOURCE_URL>
https://pubchem.ncbi.nlm.nih.gov/rest/pug/compound/inchikey/WPYMKLBDIGXBTP-UHFFFAOYSA-N/SDF?record_type=3d

> <SMILES>
OC(=O)C1=CC=CC=C1

> <INCHI_IDENTIFIER>
InChI=1S/C7H6O2/c8-7(9)6-4-2-1-3-5-6/h1-5H,(H,8,9)

> <INCHI_KEY>
WPYMKLBDIGXBTP-UHFFFAOYSA-N

> <FORMULA>
C7H6O2

> <MOLECULAR_WEIGHT>
122.123

> <EXACT_MASS>
122.036779433

> <JCHEM_ACCEPTOR_COUNT>
2

> <JCHEM_ATOM_COUNT>
15

> <JCHEM_AVERAGE_POLARIZABILITY>
11.97308273996681

> <JCHEM_BIOAVAILABILITY>
1

> <JCHEM_DONOR_COUNT>
1

> <JCHEM_FORMAL_CHARGE>
0

> <JCHEM_GHOSE_FILTER>
0

> <JCHEM_IUPAC>
benzoic acid

> <ALOGPS_LOGP>
1.72

> <JCHEM_LOGP>
1.630828724

> <ALOGPS_LOGS>
-1.24

> <JCHEM_MDDR_LIKE_RULE>
0

> <JCHEM_NUMBER_OF_RINGS>
1

> <JCHEM_PHYSIOLOGICAL_CHARGE>
-1

> <JCHEM_PKA_STRONGEST_ACIDIC>
4.07523327743486

> <JCHEM_POLAR_SURFACE_AREA>
37.3

> <JCHEM_REFRACTIVITY>
33.3142

> <JCHEM_ROTATABLE_BOND_COUNT>
1

> <JCHEM_RULE_OF_FIVE>
1

> <ALOGPS_SOLUBILITY>
7.08e+00 g/l

> <JCHEM_TRADITIONAL_IUPAC>
benzoic acid

> <JCHEM_VEBER_RULE>
1

$$$$
66644
  -OEChem-10051720223D

 18 18  0     0  0  0  0  0  0999 V2000
   -0.4938   -2.2426   -0.2231 O   0  0  0  0  0  0  0  0  0  0  0  0
    1.8340   -1.2052    0.5890 O   0  0  0  0  0  0  0  0  0  0  0  0
    3.5935    0.6481   -0.2503 O   0  0  0  0  0  0  0  0  0  0  0  0
    2.2119    0.8767   -0.3256 N   0  0  0  0  0  0  0  0  0  0  0  0
   -0.0501    0.0968    0.0705 C   0  0  0  0  0  0  0  0  0  0  0  0
   -0.9425   -0.9610   -0.1046 C   0  0  0  0  0  0  0  0  0  0  0  0
   -0.5296    1.4014    0.1881 C   0  0  0  0  0  0  0  0  0  0  0  0
   -2.3142   -0.7140   -0.1620 C   0  0  0  0  0  0  0  0  0  0  0  0
   -1.9013    1.6482    0.1306 C   0  0  0  0  0  0  0  0  0  0  0  0
   -2.7936    0.5906   -0.0445 C   0  0  0  0  0  0  0  0  0  0  0  0
    1.3856   -0.1389    0.1319 C   0  0  0  0  0  0  0  0  0  0  0  0
    0.1329    2.2476    0.3475 H   0  0  0  0  0  0  0  0  0  0  0  0
   -3.0210   -1.5282   -0.2980 H   0  0  0  0  0  0  0  0  0  0  0  0
   -2.2755    2.6633    0.2272 H   0  0  0  0  0  0  0  0  0  0  0  0
   -3.8617    0.7828   -0.0880 H   0  0  0  0  0  0  0  0  0  0  0  0
    1.9224    1.7162   -0.8142 H   0  0  0  0  0  0  0  0  0  0  0  0
   -1.2554   -2.8366   -0.3377 H   0  0  0  0  0  0  0  0  0  0  0  0
    3.7908    1.0720    0.6021 H   0  0  0  0  0  0  0  0  0  0  0  0
  1  6  1  0  0  0  0
  1 17  1  0  0  0  0
  2 11  2  0  0  0  0
  3  4  1  0  0  0  0
  3 18  1  0  0  0  0
  4 11  1  0  0  0  0
  4 16  1  0  0  0  0
  5  6  1  0  0  0  0
  5  7  2  0  0  0  0
  5 11  1  0  0  0  0
  6  8  2  0  0  0  0
  7  9  1  0  0  0  0
  7 12  1  0  0  0  0
  8 10  1  0  0  0  0
  8 13  1  0  0  0  0
  9 10  2  0  0  0  0
  9 14  1  0  0  0  0
 10 15  1  0  0  0  0
M  END
> <DATABASE_ID>
DB03819

> <DATABASE_NAME>
drugbank

> <ORIGINAL_SOURCE>
PUBCHEM

> <ORIGINAL_SOURCE_URL>
https://pubchem.ncbi.nlm.nih.gov/rest/pug/compound/inchikey/HBROZNQEVUILML-UHFFFAOYSA-N/SDF?record_type=3d

> <SMILES>
ONC(=O)C1=CC=CC=C1O

> <INCHI_IDENTIFIER>
InChI=1S/C7H7NO3/c9-6-4-2-1-3-5(6)7(10)8-11/h1-4,9,11H,(H,8,10)

> <INCHI_KEY>
HBROZNQEVUILML-UHFFFAOYSA-N

> <FORMULA>
C7H7NO3

> <MOLECULAR_WEIGHT>
153.1354

> <EXACT_MASS>
153.042593095

> <JCHEM_ACCEPTOR_COUNT>
3

> <JCHEM_AVERAGE_POLARIZABILITY>
14.166873869347885

> <JCHEM_BIOAVAILABILITY>
1

> <JCHEM_DONOR_COUNT>
3

> <JCHEM_FORMAL_CHARGE>
0

> <JCHEM_GHOSE_FILTER>
0

> <JCHEM_IUPAC>
N,2-dihydroxybenzamide

> <ALOGPS_LOGP>
0.21

> <JCHEM_LOGP>
1.1671390613333332

> <ALOGPS_LOGS>
-1.28

> <JCHEM_MDDR_LIKE_RULE>
0

> <JCHEM_NUMBER_OF_RINGS>
1

> <JCHEM_PHYSIOLOGICAL_CHARGE>
0

> <JCHEM_PKA>
9.851213449003092

> <JCHEM_PKA_STRONGEST_ACIDIC>
8.009476066404712

> <JCHEM_PKA_STRONGEST_BASIC>
-5.262403530561273

> <JCHEM_POLAR_SURFACE_AREA>
69.56

> <JCHEM_REFRACTIVITY>
38.881899999999995

> <JCHEM_ROTATABLE_BOND_COUNT>
1

> <JCHEM_RULE_OF_FIVE>
1

> <ALOGPS_SOLUBILITY>
8.03e+00 g/l

> <JCHEM_TRADITIONAL_IUPAC>
salicylhydroxamic acid

> <JCHEM_VEBER_RULE>
0

$$$$
444732
  -OEChem-02082014363D

 44 44  0     1  0  0  0  0  0999 V2000
   -0.7418    2.1044   -1.7725 O   0  0  0  0  0  0  0  0  0  0  0  0
    5.9303   -0.2260   -1.2631 O   0  0  0  0  0  0  0  0  0  0  0  0
    7.6595   -2.0603   -0.2763 O   0  0  0  0  0  0  0  0  0  0  0  0
   -5.5053   -1.5971    0.1651 N   0  0  0  0  0  0  0  0  0  0  0  0
    6.4338   -1.8005    0.3521 N   0  0  0  0  0  0  0  0  0  0  0  0
    0.0081    1.9263    0.5155 C   0  0  1  0  0  0  0  0  0  0  0  0
   -0.9473    1.6488   -0.6476 C   0  0  0  0  0  0  0  0  0  0  0  0
   -2.1504    0.7927   -0.4334 C   0  0  0  0  0  0  0  0  0  0  0  0
    1.3825    1.4739    0.0892 C   0  0  0  0  0  0  0  0  0  0  0  0
    0.0218    3.4215    0.8369 C   0  0  0  0  0  0  0  0  0  0  0  0
   -4.3686   -0.7873   -0.0378 C   0  0  0  0  0  0  0  0  0  0  0  0
   -2.7356    0.7774    0.8122 C   0  0  0  0  0  0  0  0  0  0  0  0
   -2.6284    0.0505   -1.4893 C   0  0  0  0  0  0  0  0  0  0  0  0
   -3.8598   -0.0235    1.0128 C   0  0  0  0  0  0  0  0  0  0  0  0
   -3.7527   -0.7503   -1.2888 C   0  0  0  0  0  0  0  0  0  0  0  0
    2.1704    0.5415    0.6666 C   0  0  0  0  0  0  0  0  0  0  0  0
    1.8047   -0.2066    1.9222 C   0  0  0  0  0  0  0  0  0  0  0  0
   -6.1523   -1.6425    1.4612 C   0  0  0  0  0  0  0  0  0  0  0  0
   -6.0499   -2.3837   -0.9239 C   0  0  0  0  0  0  0  0  0  0  0  0
    3.4669    0.2413    0.0519 C   0  0  0  0  0  0  0  0  0  0  0  0
    4.3674   -0.6511    0.4923 C   0  0  0  0  0  0  0  0  0  0  0  0
    5.6466   -0.8493   -0.2455 C   0  0  0  0  0  0  0  0  0  0  0  0
   -0.3111    1.3937    1.4079 H   0  0  0  0  0  0  0  0  0  0  0  0
    1.7571    1.9726   -0.8066 H   0  0  0  0  0  0  0  0  0  0  0  0
    0.7019    3.6382    1.6680 H   0  0  0  0  0  0  0  0  0  0  0  0
    0.3374    4.0210   -0.0250 H   0  0  0  0  0  0  0  0  0  0  0  0
   -0.9800    3.7624    1.1207 H   0  0  0  0  0  0  0  0  0  0  0  0
   -2.3905    1.3872    1.6398 H   0  0  0  0  0  0  0  0  0  0  0  0
   -2.1553    0.0652   -2.4665 H   0  0  0  0  0  0  0  0  0  0  0  0
   -4.3080   -0.0113    2.0015 H   0  0  0  0  0  0  0  0  0  0  0  0
   -4.1087   -1.3269   -2.1369 H   0  0  0  0  0  0  0  0  0  0  0  0
    2.5553   -0.0349    2.7021 H   0  0  0  0  0  0  0  0  0  0  0  0
    1.7479   -1.2825    1.7221 H   0  0  0  0  0  0  0  0  0  0  0  0
    0.8454    0.0812    2.3541 H   0  0  0  0  0  0  0  0  0  0  0  0
   -6.5322   -0.6558    1.7487 H   0  0  0  0  0  0  0  0  0  0  0  0
   -5.4679   -2.0121    2.2329 H   0  0  0  0  0  0  0  0  0  0  0  0
   -7.0136   -2.3199    1.4603 H   0  0  0  0  0  0  0  0  0  0  0  0
   -6.9321   -2.9530   -0.6104 H   0  0  0  0  0  0  0  0  0  0  0  0
   -5.3201   -3.1161   -1.2866 H   0  0  0  0  0  0  0  0  0  0  0  0
   -6.3713   -1.7433   -1.7529 H   0  0  0  0  0  0  0  0  0  0  0  0
    3.6958    0.8095   -0.8487 H   0  0  0  0  0  0  0  0  0  0  0  0
    4.2022   -1.2505    1.3810 H   0  0  0  0  0  0  0  0  0  0  0  0
    6.1888   -2.3893    1.1402 H   0  0  0  0  0  0  0  0  0  0  0  0
    8.2472   -1.4952    0.2533 H   0  0  0  0  0  0  0  0  0  0  0  0
  1  7  2  0  0  0  0
  2 22  2  0  0  0  0
  3  5  1  0  0  0  0
  3 44  1  0  0  0  0
  4 11  1  0  0  0  0
  4 18  1  0  0  0  0
  4 19  1  0  0  0  0
  5 22  1  0  0  0  0
  5 43  1  0  0  0  0
  6  7  1  0  0  0  0
  6  9  1  0  0  0  0
  6 10  1  0  0  0  0
  6 23  1  0  0  0  0
  7  8  1  0  0  0  0
  8 12  2  0  0  0  0
  8 13  1  0  0  0  0
  9 16  2  0  0  0  0
  9 24  1  0  0  0  0
 10 25  1  0  0  0  0
 10 26  1  0  0  0  0
 10 27  1  0  0  0  0
 11 14  2  0  0  0  0
 11 15  1  0  0  0  0
 12 14  1  0  0  0  0
 12 28  1  0  0  0  0
 13 15  2  0  0  0  0
 13 29  1  0  0  0  0
 14 30  1  0  0  0  0
 15 31  1  0  0  0  0
 16 17  1  0  0  0  0
 16 20  1  0  0  0  0
 17 32  1  0  0  0  0
 17 33  1  0  0  0  0
 17 34  1  0  0  0  0
 18 35  1  0  0  0  0
 18 36  1  0  0  0  0
 18 37  1  0  0  0  0
 19 38  1  0  0  0  0
 19 39  1  0  0  0  0
 19 40  1  0  0  0  0
 20 21  2  0  0  0  0
 20 41  1  0  0  0  0
 21 22  1  0  0  0  0
 21 42  1  0  0  0  0
M  END
> <DATABASE_ID>
DB04297

> <DATABASE_NAME>
drugbank

> <ORIGINAL_SOURCE>
PUBCHEM

> <ORIGINAL_SOURCE_URL>
https://pubchem.ncbi.nlm.nih.gov/rest/pug/compound/inchikey/RTKIYFITIVXBLE-QEQCGCAPSA-N/SDF?record_type=3d

> <SMILES>
C[C@H](\C=C(/C)\C=C\C(=O)NO)C(=O)C1=CC=C(C=C1)N(C)C

> <INCHI_IDENTIFIER>
InChI=1S/C17H22N2O3/c1-12(5-10-16(20)18-22)11-13(2)17(21)14-6-8-15(9-7-14)19(3)4/h5-11,13,22H,1-4H3,(H,18,20)/b10-5+,12-11+/t13-/m1/s1

> <INCHI_KEY>
RTKIYFITIVXBLE-QEQCGCAPSA-N

> <FORMULA>
C17H22N2O3

> <MOLECULAR_WEIGHT>
302.3682

> <EXACT_MASS>
302.16304258

> <JCHEM_ACCEPTOR_COUNT>
4

> <JCHEM_ATOM_COUNT>
44

> <JCHEM_AVERAGE_NEUTRAL_MICROSPECIES_CHARGE>
-0.0024717851956140707

> <JCHEM_AVERAGE_POLARIZABILITY>
34.05933146673187

> <JCHEM_BIOAVAILABILITY>
1

> <JCHEM_DONOR_COUNT>
2

> <JCHEM_FORMAL_CHARGE>
0

> <JCHEM_GHOSE_FILTER>
1

> <JCHEM_IUPAC>
(2E,4E,6R)-7-[4-(dimethylamino)phenyl]-N-hydroxy-4,6-dimethyl-7-oxohepta-2,4-dienamide

> <ALOGPS_LOGP>
2.36

> <JCHEM_LOGP>
2.4096309773333324

> <ALOGPS_LOGS>
-3.85

> <JCHEM_MDDR_LIKE_RULE>
0

> <JCHEM_NEUTRAL_CHARGE>
0

> <JCHEM_NUMBER_OF_RINGS>
1

> <JCHEM_PHYSIOLOGICAL_CHARGE>
0

> <JCHEM_PKA>
14.090004411076219

> <JCHEM_PKA_STRONGEST_ACIDIC>
9.567311454805958

> <JCHEM_PKA_STRONGEST_BASIC>
3.360376109059741

> <JCHEM_POLAR_SURFACE_AREA>
69.64

> <JCHEM_REFRACTIVITY>
90.23889999999997

> <JCHEM_ROTATABLE_BOND_COUNT>
6

> <JCHEM_RULE_OF_FIVE>
1

> <ALOGPS_SOLUBILITY>
4.25e-02 g/l

> <JCHEM_TRADITIONAL_IUPAC>
11-[(1S,3aS,3bR,4R,9bS,11aS)-1,7-dihydroxy-11a-methyl-1H,2H,3H,3aH,3bH,4H,5H,9bH,10H,11H-cyclopenta[a]phenanthren-4-yl]-N-butyl-N-methylundecanamide

> <JCHEM_VEBER_RULE>
0

$$$$
10972974
  -OEChem-10051720413D

 66 67  0     1  0  0  0  0  0999 V2000
   -2.3765   -2.1093   -1.4430 S   0  0  0  0  0  0  0  0  0  0  0  0
   -0.4528    0.9831    2.3892 S   0  0  0  0  0  0  0  0  0  0  0  0
    5.0606    2.5347   -1.8077 O   0  0  0  0  0  0  0  0  0  0  0  0
    6.6373    0.2333    1.4751 O   0  0  0  0  0  0  0  0  0  0  0  0
    6.0119   -2.9014   -1.7790 O   0  0  0  0  0  0  0  0  0  0  0  0
    1.0068    0.4451    0.3246 N   0  0  0  0  0  0  0  0  0  0  0  0
   -2.4241   -0.8275    0.8014 N   0  0  0  0  0  0  0  0  0  0  0  0
    3.9218   -2.2699   -1.0606 N   0  0  0  0  0  0  0  0  0  0  0  0
    6.0795    0.5238   -0.8767 C   0  0  1  0  0  0  0  0  0  0  0  0
    5.1293    1.7235   -0.6337 C   0  0  2  0  0  0  0  0  0  0  0  0
    7.4869    0.9862   -1.2814 C   0  0  0  0  0  0  0  0  0  0  0  0
    6.1687   -0.3894    0.3351 C   0  0  0  0  0  0  0  0  0  0  0  0
    3.7194    1.2803   -0.3340 C   0  0  0  0  0  0  0  0  0  0  0  0
    3.0551    1.6320    0.7803 C   0  0  0  0  0  0  0  0  0  0  0  0
    5.8063   -1.6837    0.2727 C   0  0  0  0  0  0  0  0  0  0  0  0
   -4.5091   -2.0596    0.3039 C   0  0  1  0  0  0  0  0  0  0  0  0
    1.7181    1.2535    1.1661 C   0  0  0  0  0  0  0  0  0  0  0  0
   -3.1322   -1.6054    0.0129 C   0  0  0  0  0  0  0  0  0  0  0  0
    4.2279    3.6649   -1.6039 C   0  0  0  0  0  0  0  0  0  0  0  0
   -1.1940   -0.6103    0.2181 C   0  0  0  0  0  0  0  0  0  0  0  0
   -4.5642   -2.9849    1.5515 C   0  0  0  0  0  0  0  0  0  0  0  0
   -5.5697   -0.9484    0.3822 C   0  0  0  0  0  0  0  0  0  0  0  0
   -0.1690    0.2323    0.8724 C   0  0  0  0  0  0  0  0  0  0  0  0
   -9.7020    1.5681   -0.9190 C   0  0  0  0  0  0  0  0  0  0  0  0
    1.1234    1.6558    2.3235 C   0  0  0  0  0  0  0  0  0  0  0  0
    5.2919   -2.3476   -0.9563 C   0  0  0  0  0  0  0  0  0  0  0  0
    6.0805   -0.3568    2.6330 C   0  0  0  0  0  0  0  0  0  0  0  0
   -0.9799   -1.2194   -0.9975 C   0  0  0  0  0  0  0  0  0  0  0  0
   -6.6717   -0.8073   -0.3713 C   0  0  0  0  0  0  0  0  0  0  0  0
   -8.6881    0.4465   -0.9825 C   0  0  0  0  0  0  0  0  0  0  0  0
   -7.5861    0.3057   -0.2289 C   0  0  0  0  0  0  0  0  0  0  0  0
  -11.0959    0.9855   -0.6737 C   0  0  0  0  0  0  0  0  0  0  0  0
   -9.4099    2.6665    0.1071 C   0  0  0  0  0  0  0  0  0  0  0  0
    5.6969   -0.0165   -1.7519 H   0  0  0  0  0  0  0  0  0  0  0  0
    5.5352    2.3366    0.1828 H   0  0  0  0  0  0  0  0  0  0  0  0
    7.9351    1.6288   -0.5155 H   0  0  0  0  0  0  0  0  0  0  0  0
    8.1521    0.1293   -1.4366 H   0  0  0  0  0  0  0  0  0  0  0  0
    7.4588    1.5535   -2.2178 H   0  0  0  0  0  0  0  0  0  0  0  0
    3.2340    0.6533   -1.0785 H   0  0  0  0  0  0  0  0  0  0  0  0
    3.5844    2.2677    1.4893 H   0  0  0  0  0  0  0  0  0  0  0  0
   -4.8353   -2.7093   -0.5230 H   0  0  0  0  0  0  0  0  0  0  0  0
    5.8801   -2.3580    1.1190 H   0  0  0  0  0  0  0  0  0  0  0  0
    4.4552    4.1765   -0.6626 H   0  0  0  0  0  0  0  0  0  0  0  0
    3.1675    3.4017   -1.6604 H   0  0  0  0  0  0  0  0  0  0  0  0
    4.4237    4.3692   -2.4184 H   0  0  0  0  0  0  0  0  0  0  0  0
   -5.5763   -3.3759    1.7019 H   0  0  0  0  0  0  0  0  0  0  0  0
   -3.8825   -3.8347    1.4353 H   0  0  0  0  0  0  0  0  0  0  0  0
   -4.2715   -2.4403    2.4565 H   0  0  0  0  0  0  0  0  0  0  0  0
   -5.3691   -0.1991    1.1489 H   0  0  0  0  0  0  0  0  0  0  0  0
   -9.7097    2.0422   -1.9094 H   0  0  0  0  0  0  0  0  0  0  0  0
    1.5023    2.2857    3.1164 H   0  0  0  0  0  0  0  0  0  0  0  0
    6.5797   -1.2989    2.8839 H   0  0  0  0  0  0  0  0  0  0  0  0
    4.9926   -0.4810    2.5677 H   0  0  0  0  0  0  0  0  0  0  0  0
    6.2686    0.3261    3.4686 H   0  0  0  0  0  0  0  0  0  0  0  0
   -0.1067   -1.1955   -1.6349 H   0  0  0  0  0  0  0  0  0  0  0  0
   -6.8892   -1.5459   -1.1381 H   0  0  0  0  0  0  0  0  0  0  0  0
   -8.8927   -0.3064   -1.7436 H   0  0  0  0  0  0  0  0  0  0  0  0
   -7.3454    1.0396    0.5343 H   0  0  0  0  0  0  0  0  0  0  0  0
  -11.1562    0.4929    0.3035 H   0  0  0  0  0  0  0  0  0  0  0  0
  -11.3573    0.2468   -1.4398 H   0  0  0  0  0  0  0  0  0  0  0  0
  -11.8570    1.7729   -0.7019 H   0  0  0  0  0  0  0  0  0  0  0  0
   -8.4398    3.1380   -0.0838 H   0  0  0  0  0  0  0  0  0  0  0  0
  -10.1707    3.4533    0.0552 H   0  0  0  0  0  0  0  0  0  0  0  0
   -9.4078    2.2737    1.1300 H   0  0  0  0  0  0  0  0  0  0  0  0
    3.4359   -2.6796   -1.8514 H   0  0  0  0  0  0  0  0  0  0  0  0
    3.3450   -1.8101   -0.3628 H   0  0  0  0  0  0  0  0  0  0  0  0
  1 18  1  0  0  0  0
  1 28  1  0  0  0  0
  2 23  1  0  0  0  0
  2 25  1  0  0  0  0
  3 10  1  0  0  0  0
  3 19  1  0  0  0  0
  4 12  1  0  0  0  0
  4 27  1  0  0  0  0
  5 26  2  0  0  0  0
  6 17  1  0  0  0  0
  6 23  2  0  0  0  0
  7 18  2  0  0  0  0
  7 20  1  0  0  0  0
  8 26  1  0  0  0  0
  8 65  1  0  0  0  0
  8 66  1  0  0  0  0
  9 10  1  0  0  0  0
  9 11  1  0  0  0  0
  9 12  1  0  0  0  0
  9 34  1  0  0  0  0
 10 13  1  0  0  0  0
 10 35  1  0  0  0  0
 11 36  1  0  0  0  0
 11 37  1  0  0  0  0
 11 38  1  0  0  0  0
 12 15  2  0  0  0  0
 13 14  2  0  0  0  0
 13 39  1  0  0  0  0
 14 17  1  0  0  0  0
 14 40  1  0  0  0  0
 15 26  1  0  0  0  0
 15 42  1  0  0  0  0
 16 18  1  0  0  0  0
 16 21  1  0  0  0  0
 16 22  1  0  0  0  0
 16 41  1  0  0  0  0
 17 25  2  0  0  0  0
 19 43  1  0  0  0  0
 19 44  1  0  0  0  0
 19 45  1  0  0  0  0
 20 23  1  0  0  0  0
 20 28  2  0  0  0  0
 21 46  1  0  0  0  0
 21 47  1  0  0  0  0
 21 48  1  0  0  0  0
 22 29  2  0  0  0  0
 22 49  1  0  0  0  0
 24 30  1  0  0  0  0
 24 32  1  0  0  0  0
 24 33  1  0  0  0  0
 24 50  1  0  0  0  0
 25 51  1  0  0  0  0
 27 52  1  0  0  0  0
 27 53  1  0  0  0  0
 27 54  1  0  0  0  0
 28 55  1  0  0  0  0
 29 31  1  0  0  0  0
 29 56  1  0  0  0  0
 30 31  2  0  0  0  0
 30 57  1  0  0  0  0
 31 58  1  0  0  0  0
 32 59  1  0  0  0  0
 32 60  1  0  0  0  0
 32 61  1  0  0  0  0
 33 62  1  0  0  0  0
 33 63  1  0  0  0  0
 33 64  1  0  0  0  0
M  END
> <DATABASE_ID>
DB04741

> <DATABASE_NAME>
drugbank

> <ORIGINAL_SOURCE>
PUBCHEM

> <ORIGINAL_SOURCE_URL>
https://pubchem.ncbi.nlm.nih.gov/rest/pug/compound/inchikey/XKTFQMCPGMTBMD-FYHMSGCOSA-N/SDF?record_type=3d

> <SMILES>
CO[C@@H](\C=C\C1=CSC(=N1)C1=CSC(=N1)[C@@H](C)\C=C\C=C\C(C)C)[C@@H](C)C(\OC)=C/C(N)=O

> <INCHI_IDENTIFIER>
InChI=1S/C25H33N3O3S2/c1-16(2)9-7-8-10-17(3)24-28-20(15-33-24)25-27-19(14-32-25)11-12-21(30-5)18(4)22(31-6)13-23(26)29/h7-18,21H,1-6H3,(H2,26,29)/b9-7+,10-8+,12-11+,22-13+/t17-,18+,21-/m0/s1

> <INCHI_KEY>
XKTFQMCPGMTBMD-FYHMSGCOSA-N

> <FORMULA>
C25H33N3O3S2

> <MOLECULAR_WEIGHT>
487.678

> <EXACT_MASS>
487.196333317

> <JCHEM_ACCEPTOR_COUNT>
5

> <JCHEM_AVERAGE_POLARIZABILITY>
55.00961711406345

> <JCHEM_BIOAVAILABILITY>
1

> <JCHEM_DONOR_COUNT>
1

> <JCHEM_FORMAL_CHARGE>
0

> <JCHEM_GHOSE_FILTER>
0

> <JCHEM_IUPAC>
(2E,4R,5S,6E)-3,5-dimethoxy-4-methyl-7-(2-{2-[(2S,3E,5E)-7-methylocta-3,5-dien-2-yl]-1,3-thiazol-4-yl}-1,3-thiazol-4-yl)hepta-2,6-dienamide

> <ALOGPS_LOGP>
5.38

> <JCHEM_LOGP>
4.964887877666666

> <ALOGPS_LOGS>
-5.51

> <JCHEM_MDDR_LIKE_RULE>
0

> <JCHEM_NUMBER_OF_RINGS>
2

> <JCHEM_PHYSIOLOGICAL_CHARGE>
0

> <JCHEM_PKA_STRONGEST_ACIDIC>
15.913214384813429

> <JCHEM_PKA_STRONGEST_BASIC>
1.416522788363545

> <JCHEM_POLAR_SURFACE_AREA>
87.33000000000001

> <JCHEM_REFRACTIVITY>
149.96790000000001

> <JCHEM_ROTATABLE_BOND_COUNT>
12

> <JCHEM_RULE_OF_FIVE>
1

> <ALOGPS_SOLUBILITY>
1.49e-03 g/l

> <JCHEM_TRADITIONAL_IUPAC>
myxothiazol

> <JCHEM_VEBER_RULE>
0

$$$$

  Mrv1909 10301918572D          

 13 14  0  0  0  0            999 V2000
    5.6262    0.6794    0.0000 O   0  0  0  0  0  0  0  0  0  0  0  0
    4.9118    0.2669    0.0000 C   0  0  0  0  0  0  0  0  0  0  0  0
    4.9118   -0.5580    0.0000 C   0  0  0  0  0  0  0  0  0  0  0  0
    4.1973   -0.9705    0.0000 C   0  0  0  0  0  0  0  0  0  0  0  0
    4.1973   -1.7955    0.0000 O   0  0  0  0  0  0  0  0  0  0  0  0
    3.4828   -0.5580    0.0000 C   0  0  0  0  0  0  0  0  0  0  0  0
    2.7683   -0.9705    0.0000 C   0  0  0  0  0  0  0  0  0  0  0  0
    2.0539   -0.5580    0.0000 C   0  0  0  0  0  0  0  0  0  0  0  0
    2.0539    0.2669    0.0000 C   0  0  0  0  0  0  0  0  0  0  0  0
    2.7683    0.6794    0.0000 C   0  0  0  0  0  0  0  0  0  0  0  0
    3.4828    0.2669    0.0000 C   0  0  0  0  0  0  0  0  0  0  0  0
    4.1973    0.6794    0.0000 C   0  0  0  0  0  0  0  0  0  0  0  0
    4.1973    1.5044    0.0000 O   0  0  0  0  0  0  0  0  0  0  0  0
  1  2  1  0  0  0  0
  2  3  2  0  0  0  0
  3  4  1  0  0  0  0
  4  5  2  0  0  0  0
  4  6  1  0  0  0  0
  6  7  2  0  0  0  0
  7  8  1  0  0  0  0
  8  9  2  0  0  0  0
  9 10  1  0  0  0  0
 10 11  2  0  0  0  0
  6 11  1  0  0  0  0
 11 12  1  0  0  0  0
  2 12  1  0  0  0  0
 12 13  2  0  0  0  0
M  END
> <DATABASE_ID>
DB04744

> <DATABASE_NAME>
drugbank

> <SMILES>
OC1=CC(=O)C2=CC=CC=C2C1=O

> <INCHI_IDENTIFIER>
InChI=1S/C10H6O3/c11-8-5-9(12)10(13)7-4-2-1-3-6(7)8/h1-5,12H

> <INCHI_KEY>
CSFWPUWCSPOLJW-UHFFFAOYSA-N

> <FORMULA>
C10H6O3

> <MOLECULAR_WEIGHT>
174.1528

> <EXACT_MASS>
174.031694058

> <JCHEM_ACCEPTOR_COUNT>
3

> <JCHEM_ATOM_COUNT>
19

> <JCHEM_AVERAGE_POLARIZABILITY>
16.419152508837577

> <JCHEM_BIOAVAILABILITY>
1

> <JCHEM_DONOR_COUNT>
1

> <JCHEM_FORMAL_CHARGE>
0

> <JCHEM_GHOSE_FILTER>
0

> <JCHEM_IUPAC>
2-hydroxy-1,4-dihydronaphthalene-1,4-dione

> <ALOGPS_LOGP>
0.99

> <JCHEM_LOGP>
0.975660269333333

> <ALOGPS_LOGS>
-1.99

> <JCHEM_MDDR_LIKE_RULE>
0

> <JCHEM_NUMBER_OF_RINGS>
2

> <JCHEM_PHYSIOLOGICAL_CHARGE>
-1

> <JCHEM_PKA_STRONGEST_ACIDIC>
5.319285276038729

> <JCHEM_PKA_STRONGEST_BASIC>
-5.401604620510081

> <JCHEM_POLAR_SURFACE_AREA>
54.37

> <JCHEM_REFRACTIVITY>
48.150600000000004

> <JCHEM_ROTATABLE_BOND_COUNT>
0

> <JCHEM_RULE_OF_FIVE>
1

> <ALOGPS_SOLUBILITY>
1.80e+00 g/l

> <JCHEM_TRADITIONAL_IUPAC>
tigecycline

> <JCHEM_VEBER_RULE>
0

> <DRUGBANK_ID>
DB04744

> <DRUG_GROUPS>
experimental

> <GENERIC_NAME>
Lawsone

> <SYNONYMS>
2-hydroxy-1,4-naphthalenedione; 2-hydroxy-1,4-naphthoquinone; 2-hydroxynaphthoquinone; Lawsone

$$$$
2378
  -OEChem-10051720423D

 42 45  0     1  0  0  0  0  0999 V2000
    2.4626   -1.5480   -0.0918 N   0  0  0  0  0  0  0  0  0  0  0  0
    3.0944   -3.6194    0.0204 N   0  0  0  0  0  0  0  0  0  0  0  0
    1.8700   -0.2944   -0.6594 C   0  0  1  0  0  0  0  0  0  0  0  0
    0.3917   -0.1904   -0.4914 C   0  0  0  0  0  0  0  0  0  0  0  0
    2.7138    0.9362   -0.2824 C   0  0  0  0  0  0  0  0  0  0  0  0
   -0.3896    0.3565   -1.5095 C   0  0  0  0  0  0  0  0  0  0  0  0
   -0.2096   -0.6399    0.6842 C   0  0  0  0  0  0  0  0  0  0  0  0
   -2.3733    0.0046   -0.1763 C   0  0  0  0  0  0  0  0  0  0  0  0
    3.8612    1.1801   -0.9936 C   0  0  0  0  0  0  0  0  0  0  0  0
    2.2790    1.7320    0.7469 C   0  0  0  0  0  0  0  0  0  0  0  0
   -1.7720    0.4541   -1.3518 C   0  0  0  0  0  0  0  0  0  0  0  0
   -1.5921   -0.5424    0.8418 C   0  0  0  0  0  0  0  0  0  0  0  0
    3.0015   -1.6424    1.1249 C   0  0  0  0  0  0  0  0  0  0  0  0
    2.5189   -2.7140   -0.7393 C   0  0  0  0  0  0  0  0  0  0  0  0
   -3.8075    0.1049   -0.0127 C   0  0  0  0  0  0  0  0  0  0  0  0
    4.6260    2.2954   -0.6521 C   0  0  0  0  0  0  0  0  0  0  0  0
    3.0438    2.8475    1.0883 C   0  0  0  0  0  0  0  0  0  0  0  0
    3.3972   -2.9580    1.1841 C   0  0  0  0  0  0  0  0  0  0  0  0
    4.2173    3.1291    0.3887 C   0  0  0  0  0  0  0  0  0  0  0  0
   -4.3663    1.2512    0.5530 C   0  0  0  0  0  0  0  0  0  0  0  0
   -4.6314   -0.9439   -0.4211 C   0  0  0  0  0  0  0  0  0  0  0  0
   -5.7488    1.3482    0.7105 C   0  0  0  0  0  0  0  0  0  0  0  0
   -6.0140   -0.8466   -0.2636 C   0  0  0  0  0  0  0  0  0  0  0  0
   -6.5726    0.2994    0.3022 C   0  0  0  0  0  0  0  0  0  0  0  0
    2.0323   -0.4351   -1.7415 H   0  0  0  0  0  0  0  0  0  0  0  0
    0.0652    0.7133   -2.4299 H   0  0  0  0  0  0  0  0  0  0  0  0
    0.3642   -1.0557    1.5056 H   0  0  0  0  0  0  0  0  0  0  0  0
    4.1862    0.5346   -1.8033 H   0  0  0  0  0  0  0  0  0  0  0  0
    1.3800    1.5343    1.3183 H   0  0  0  0  0  0  0  0  0  0  0  0
   -2.3662    0.8836   -2.1549 H   0  0  0  0  0  0  0  0  0  0  0  0
   -2.0448   -0.8941    1.7660 H   0  0  0  0  0  0  0  0  0  0  0  0
    3.0691   -0.8438    1.8499 H   0  0  0  0  0  0  0  0  0  0  0  0
    2.1430   -2.8813   -1.7395 H   0  0  0  0  0  0  0  0  0  0  0  0
    5.5402    2.5143   -1.1962 H   0  0  0  0  0  0  0  0  0  0  0  0
    2.7277    3.4952    1.9008 H   0  0  0  0  0  0  0  0  0  0  0  0
    3.8822   -3.4631    2.0067 H   0  0  0  0  0  0  0  0  0  0  0  0
    4.8133    3.9970    0.6552 H   0  0  0  0  0  0  0  0  0  0  0  0
   -3.7386    2.0781    0.8766 H   0  0  0  0  0  0  0  0  0  0  0  0
   -4.2124   -1.8443   -0.8640 H   0  0  0  0  0  0  0  0  0  0  0  0
   -6.1841    2.2405    1.1510 H   0  0  0  0  0  0  0  0  0  0  0  0
   -6.6557   -1.6632   -0.5815 H   0  0  0  0  0  0  0  0  0  0  0  0
   -7.6491    0.3751    0.4247 H   0  0  0  0  0  0  0  0  0  0  0  0
  1  3  1  0  0  0  0
  1 13  1  0  0  0  0
  1 14  1  0  0  0  0
  2 14  2  0  0  0  0
  2 18  1  0  0  0  0
  3  4  1  0  0  0  0
  3  5  1  0  0  0  0
  3 25  1  0  0  0  0
  4  6  2  0  0  0  0
  4  7  1  0  0  0  0
  5  9  2  0  0  0  0
  5 10  1  0  0  0  0
  6 11  1  0  0  0  0
  6 26  1  0  0  0  0
  7 12  2  0  0  0  0
  7 27  1  0  0  0  0
  8 11  2  0  0  0  0
  8 12  1  0  0  0  0
  8 15  1  0  0  0  0
  9 16  1  0  0  0  0
  9 28  1  0  0  0  0
 10 17  2  0  0  0  0
 10 29  1  0  0  0  0
 11 30  1  0  0  0  0
 12 31  1  0  0  0  0
 13 18  2  0  0  0  0
 13 32  1  0  0  0  0
 14 33  1  0  0  0  0
 15 20  2  0  0  0  0
 15 21  1  0  0  0  0
 16 19  2  0  0  0  0
 16 34  1  0  0  0  0
 17 19  1  0  0  0  0
 17 35  1  0  0  0  0
 18 36  1  0  0  0  0
 19 37  1  0  0  0  0
 20 22  1  0  0  0  0
 20 38  1  0  0  0  0
 21 23  2  0  0  0  0
 21 39  1  0  0  0  0
 22 24  2  0  0  0  0
 22 40  1  0  0  0  0
 23 24  1  0  0  0  0
 23 41  1  0  0  0  0
 24 42  1  0  0  0  0
M  END
> <DATABASE_ID>
DB04794

> <DATABASE_NAME>
drugbank

> <ORIGINAL_SOURCE>
PUBCHEM

> <ORIGINAL_SOURCE_URL>
https://pubchem.ncbi.nlm.nih.gov/rest/pug/compound/inchikey/OCAPBUJLXMYKEJ-UHFFFAOYSA-N/SDF?record_type=3d

> <SMILES>
C1=CN(C=N1)C(C1=CC=CC=C1)C1=CC=C(C=C1)C1=CC=CC=C1

> <INCHI_IDENTIFIER>
InChI=1S/C22H18N2/c1-3-7-18(8-4-1)19-11-13-21(14-12-19)22(24-16-15-23-17-24)20-9-5-2-6-10-20/h1-17,22H

> <INCHI_KEY>
OCAPBUJLXMYKEJ-UHFFFAOYSA-N

> <FORMULA>
C22H18N2

> <MOLECULAR_WEIGHT>
310.3917

> <EXACT_MASS>
310.146998586

> <JCHEM_ACCEPTOR_COUNT>
1

> <JCHEM_AVERAGE_POLARIZABILITY>
35.40575524517509

> <JCHEM_BIOAVAILABILITY>
1

> <JCHEM_DONOR_COUNT>
0

> <JCHEM_FORMAL_CHARGE>
0

> <JCHEM_GHOSE_FILTER>
1

> <JCHEM_IUPAC>
1-[phenyl(4-phenylphenyl)methyl]-1H-imidazole

> <ALOGPS_LOGP>
4.92

> <JCHEM_LOGP>
5.234390525333334

> <ALOGPS_LOGS>
-5.10

> <JCHEM_MDDR_LIKE_RULE>
0

> <JCHEM_NUMBER_OF_RINGS>
4

> <JCHEM_PHYSIOLOGICAL_CHARGE>
0

> <JCHEM_PKA_STRONGEST_BASIC>
6.6853126840627946

> <JCHEM_POLAR_SURFACE_AREA>
17.82

> <JCHEM_REFRACTIVITY>
97.94110000000002

> <JCHEM_ROTATABLE_BOND_COUNT>
4

> <JCHEM_RULE_OF_FIVE>
0

> <ALOGPS_SOLUBILITY>
2.45e-03 g/l

> <JCHEM_TRADITIONAL_IUPAC>
bifonazole

> <JCHEM_VEBER_RULE>
1

$$$$
159326
  -OEChem-01102015193D

 49 52  0     0  0  0  0  0  0999 V2000
    1.9945    2.8363    2.1591 S   0  0  0  0  0  0  0  0  0  0  0  0
   -0.9791   -0.0178   -0.6844 O   0  0  0  0  0  0  0  0  0  0  0  0
    4.9275   -0.6387    0.3403 N   0  0  0  0  0  0  0  0  0  0  0  0
    2.8525   -0.5637   -0.8389 N   0  0  0  0  0  0  0  0  0  0  0  0
    3.3207    0.8838    0.9325 N   0  0  0  0  0  0  0  0  0  0  0  0
    1.1416    1.4087    0.1800 N   0  0  0  0  0  0  0  0  0  0  0  0
    4.3408   -2.5600   -0.9794 C   0  0  0  0  0  0  0  0  0  0  0  0
    5.4880   -1.7310   -0.4206 C   0  0  0  0  0  0  0  0  0  0  0  0
    3.3505   -1.6490   -1.6996 C   0  0  0  0  0  0  0  0  0  0  0  0
    3.6661   -0.1381    0.0832 C   0  0  0  0  0  0  0  0  0  0  0  0
   -1.1035    2.3339   -0.1990 C   0  0  0  0  0  0  0  0  0  0  0  0
    0.1429    2.3039    0.5105 C   0  0  0  0  0  0  0  0  0  0  0  0
   -1.6312    1.1765   -0.7762 C   0  0  0  0  0  0  0  0  0  0  0  0
    2.1694    1.5953    0.9830 C   0  0  0  0  0  0  0  0  0  0  0  0
   -1.6385   -1.0617   -0.0602 C   0  0  0  0  0  0  0  0  0  0  0  0
   -1.8992   -2.2303   -0.7551 C   0  0  0  0  0  0  0  0  0  0  0  0
   -2.9565   -3.1319    1.2214 C   0  0  0  0  0  0  0  0  0  0  0  0
   -2.5632   -3.2734   -0.1094 C   0  0  0  0  0  0  0  0  0  0  0  0
   -1.7957    3.5417   -0.3116 C   0  0  0  0  0  0  0  0  0  0  0  0
   -2.0219   -0.9045    1.2611 C   0  0  0  0  0  0  0  0  0  0  0  0
    0.4213    3.1581    1.5569 C   0  0  0  0  0  0  0  0  0  0  0  0
   -2.8448    1.2269   -1.4622 C   0  0  0  0  0  0  0  0  0  0  0  0
   -2.6859   -1.9476    1.9066 C   0  0  0  0  0  0  0  0  0  0  0  0
   -1.4869   -2.3978   -2.1802 C   0  0  0  0  0  0  0  0  0  0  0  0
   -3.0093    3.5920   -0.9977 C   0  0  0  0  0  0  0  0  0  0  0  0
   -3.5337    2.4348   -1.5730 C   0  0  0  0  0  0  0  0  0  0  0  0
   -3.6662   -4.2465    1.9129 C   0  0  0  0  0  0  0  0  0  0  0  0
    3.8272   -3.0786   -0.1597 H   0  0  0  0  0  0  0  0  0  0  0  0
    4.7226   -3.3251   -1.6636 H   0  0  0  0  0  0  0  0  0  0  0  0
    6.1313   -2.3447    0.2176 H   0  0  0  0  0  0  0  0  0  0  0  0
    6.1019   -1.3294   -1.2340 H   0  0  0  0  0  0  0  0  0  0  0  0
    3.8068   -1.2125   -2.5956 H   0  0  0  0  0  0  0  0  0  0  0  0
    2.4935   -2.2454   -2.0312 H   0  0  0  0  0  0  0  0  0  0  0  0
    5.5087   -0.2163    1.0577 H   0  0  0  0  0  0  0  0  0  0  0  0
    4.0295    1.1375    1.6174 H   0  0  0  0  0  0  0  0  0  0  0  0
   -2.7791   -4.1971   -0.6411 H   0  0  0  0  0  0  0  0  0  0  0  0
   -1.4133    4.4703    0.1043 H   0  0  0  0  0  0  0  0  0  0  0  0
   -1.8086    0.0065    1.8122 H   0  0  0  0  0  0  0  0  0  0  0  0
   -0.1878    3.9276    2.0106 H   0  0  0  0  0  0  0  0  0  0  0  0
   -3.2667    0.3402   -1.9268 H   0  0  0  0  0  0  0  0  0  0  0  0
   -2.9864   -1.8254    2.9439 H   0  0  0  0  0  0  0  0  0  0  0  0
   -2.1002   -1.7661   -2.8303 H   0  0  0  0  0  0  0  0  0  0  0  0
   -0.4329   -2.1300   -2.3104 H   0  0  0  0  0  0  0  0  0  0  0  0
   -1.5983   -3.4342   -2.5166 H   0  0  0  0  0  0  0  0  0  0  0  0
   -3.5437    4.5332   -1.0886 H   0  0  0  0  0  0  0  0  0  0  0  0
   -4.4769    2.4749   -2.1100 H   0  0  0  0  0  0  0  0  0  0  0  0
   -3.3303   -5.2196    1.5389 H   0  0  0  0  0  0  0  0  0  0  0  0
   -3.4705   -4.2331    2.9905 H   0  0  0  0  0  0  0  0  0  0  0  0
   -4.7455   -4.1615    1.7521 H   0  0  0  0  0  0  0  0  0  0  0  0
  1 14  1  0  0  0  0
  1 21  1  0  0  0  0
  2 13  1  0  0  0  0
  2 15  1  0  0  0  0
  3  8  1  0  0  0  0
  3 10  1  0  0  0  0
  3 34  1  0  0  0  0
  4  9  1  0  0  0  0
  4 10  2  0  0  0  0
  5 10  1  0  0  0  0
  5 14  1  0  0  0  0
  5 35  1  0  0  0  0
  6 12  1  0  0  0  0
  6 14  2  0  0  0  0
  7  8  1  0  0  0  0
  7  9  1  0  0  0  0
  7 28  1  0  0  0  0
  7 29  1  0  0  0  0
  8 30  1  0  0  0  0
  8 31  1  0  0  0  0
  9 32  1  0  0  0  0
  9 33  1  0  0  0  0
 11 12  1  0  0  0  0
 11 13  1  0  0  0  0
 11 19  2  0  0  0  0
 12 21  2  0  0  0  0
 13 22  2  0  0  0  0
 15 16  2  0  0  0  0
 15 20  1  0  0  0  0
 16 18  1  0  0  0  0
 16 24  1  0  0  0  0
 17 18  2  0  0  0  0
 17 23  1  0  0  0  0
 17 27  1  0  0  0  0
 18 36  1  0  0  0  0
 19 25  1  0  0  0  0
 19 37  1  0  0  0  0
 20 23  2  0  0  0  0
 20 38  1  0  0  0  0
 21 39  1  0  0  0  0
 22 26  1  0  0  0  0
 22 40  1  0  0  0  0
 23 41  1  0  0  0  0
 24 42  1  0  0  0  0
 24 43  1  0  0  0  0
 24 44  1  0  0  0  0
 25 26  2  0  0  0  0
 25 45  1  0  0  0  0
 26 46  1  0  0  0  0
 27 47  1  0  0  0  0
 27 48  1  0  0  0  0
 27 49  1  0  0  0  0
M  END
> <DATABASE_ID>
DB06395

> <DATABASE_NAME>
drugbank

> <ORIGINAL_SOURCE>
PUBCHEM

> <ORIGINAL_SOURCE_URL>
https://pubchem.ncbi.nlm.nih.gov/rest/pug/compound/inchikey/TYBHXIFFPVFXQW-UHFFFAOYSA-N/SDF?record_type=3d

> <SMILES>
CC1=CC(C)=C(OC2=CC=CC=C2C2=CSC(N=C3NCCCN3)=N2)C=C1

> <INCHI_IDENTIFIER>
InChI=1S/C21H22N4OS/c1-14-8-9-18(15(2)12-14)26-19-7-4-3-6-16(19)17-13-27-21(24-17)25-20-22-10-5-11-23-20/h3-4,6-9,12-13H,5,10-11H2,1-2H3,(H2,22,23,24,25)

> <INCHI_KEY>
TYBHXIFFPVFXQW-UHFFFAOYSA-N

> <FORMULA>
C21H22N4OS

> <MOLECULAR_WEIGHT>
378.49

> <EXACT_MASS>
378.151432518

> <JCHEM_ACCEPTOR_COUNT>
4

> <JCHEM_ATOM_COUNT>
49

> <JCHEM_AVERAGE_NEUTRAL_MICROSPECIES_CHARGE>
1.0003839030464958

> <JCHEM_AVERAGE_POLARIZABILITY>
41.124793549551676

> <JCHEM_BIOAVAILABILITY>
1

> <JCHEM_DONOR_COUNT>
2

> <JCHEM_FORMAL_CHARGE>
0

> <JCHEM_GHOSE_FILTER>
1

> <JCHEM_IUPAC>
N-{4-[2-(2,4-dimethylphenoxy)phenyl]-1,3-thiazol-2-yl}-1,3-diazinan-2-imine

> <ALOGPS_LOGP>
4.55

> <JCHEM_LOGP>
4.792493401333333

> <ALOGPS_LOGS>
-5.03

> <JCHEM_MDDR_LIKE_RULE>
0

> <JCHEM_NEUTRAL_CHARGE>
0

> <JCHEM_NUMBER_OF_RINGS>
4

> <JCHEM_PHYSIOLOGICAL_CHARGE>
0

> <JCHEM_PKA>
19.85894829313454

> <JCHEM_PKA_STRONGEST_ACIDIC>
19.85894829313453

> <JCHEM_PKA_STRONGEST_BASIC>
6.543313980558725

> <JCHEM_POLAR_SURFACE_AREA>
58.540000000000006

> <JCHEM_REFRACTIVITY>
110.3471

> <JCHEM_ROTATABLE_BOND_COUNT>
4

> <JCHEM_RULE_OF_FIVE>
1

> <ALOGPS_SOLUBILITY>
3.54e-03 g/l

> <JCHEM_TRADITIONAL_IUPAC>
N-{4-[2-(2,4-dimethylphenoxy)phenyl]-1,3-thiazol-2-yl}-1,3-diazinan-2-imine

> <JCHEM_VEBER_RULE>
0

$$$$
467825
  -OEChem-10061700063D

 48 51  0     1  0  0  0  0  0999 V2000
    0.8506   -1.9272    2.4545 S   0  0  0  0  0  0  0  0  0  0  0  0
   -3.5859   -1.2507    1.7051 F   0  0  0  0  0  0  0  0  0  0  0  0
   -6.9382   -1.0268   -1.6267 F   0  0  0  0  0  0  0  0  0  0  0  0
   -0.8438    0.2885   -1.1325 O   0  0  0  0  0  0  0  0  0  0  0  0
   -2.0287    2.0951    0.8401 N   0  0  0  0  0  0  0  0  0  0  0  0
    1.4536   -1.0213    0.1096 N   0  0  0  0  0  0  0  0  0  0  0  0
   -1.2140    3.0242    0.3521 N   0  0  0  0  0  0  0  0  0  0  0  0
   -3.3516    3.7904    0.6283 N   0  0  0  0  0  0  0  0  0  0  0  0
    8.5481    1.1486   -1.6781 N   0  0  0  0  0  0  0  0  0  0  0  0
   -1.5983   -0.2664   -0.0460 C   0  0  1  0  0  0  0  0  0  0  0  0
   -0.9280   -1.6365    0.3681 C   0  0  1  0  0  0  0  0  0  0  0  0
   -1.5148    0.7537    1.1347 C   0  0  0  0  0  0  0  0  0  0  0  0
   -3.0586   -0.4760   -0.4760 C   0  0  0  0  0  0  0  0  0  0  0  0
   -0.9887   -2.7184   -0.7253 C   0  0  0  0  0  0  0  0  0  0  0  0
    0.5189   -1.4768    0.8611 C   0  0  0  0  0  0  0  0  0  0  0  0
   -3.9509   -0.9594    0.4486 C   0  0  0  0  0  0  0  0  0  0  0  0
   -3.4057   -0.1686   -1.7684 C   0  0  0  0  0  0  0  0  0  0  0  0
    2.6069   -1.0144    0.8697 C   0  0  0  0  0  0  0  0  0  0  0  0
   -5.2758   -1.1480    0.0555 C   0  0  0  0  0  0  0  0  0  0  0  0
   -4.7305   -0.3573   -2.1615 C   0  0  0  0  0  0  0  0  0  0  0  0
   -3.2882    2.5349    1.0067 C   0  0  0  0  0  0  0  0  0  0  0  0
    2.4778   -1.4694    2.1651 C   0  0  0  0  0  0  0  0  0  0  0  0
   -5.6657   -0.8469   -1.2496 C   0  0  0  0  0  0  0  0  0  0  0  0
    3.8570   -0.5587    0.3333 C   0  0  0  0  0  0  0  0  0  0  0  0
   -2.0675    4.0440    0.2389 C   0  0  0  0  0  0  0  0  0  0  0  0
    4.8058    0.0270    1.1728 C   0  0  0  0  0  0  0  0  0  0  0  0
    4.1268   -0.7012   -1.0286 C   0  0  0  0  0  0  0  0  0  0  0  0
    6.0215    0.4696    0.6514 C   0  0  0  0  0  0  0  0  0  0  0  0
    5.3426   -0.2587   -1.5498 C   0  0  0  0  0  0  0  0  0  0  0  0
    6.2899    0.3267   -0.7097 C   0  0  0  0  0  0  0  0  0  0  0  0
    7.5354    0.7799   -1.2437 C   0  0  0  0  0  0  0  0  0  0  0  0
   -1.5083   -2.0475    1.2050 H   0  0  0  0  0  0  0  0  0  0  0  0
   -0.4694    0.9224    1.4223 H   0  0  0  0  0  0  0  0  0  0  0  0
   -2.0378    0.4087    2.0329 H   0  0  0  0  0  0  0  0  0  0  0  0
   -0.4714   -2.3926   -1.6344 H   0  0  0  0  0  0  0  0  0  0  0  0
   -2.0198   -2.9693   -0.9909 H   0  0  0  0  0  0  0  0  0  0  0  0
   -0.5053   -3.6417   -0.3857 H   0  0  0  0  0  0  0  0  0  0  0  0
   -1.1232    1.2073   -1.2804 H   0  0  0  0  0  0  0  0  0  0  0  0
   -2.7100    0.2064   -2.5101 H   0  0  0  0  0  0  0  0  0  0  0  0
   -6.0039   -1.5286    0.7655 H   0  0  0  0  0  0  0  0  0  0  0  0
   -5.0347   -0.1246   -3.1777 H   0  0  0  0  0  0  0  0  0  0  0  0
   -4.1031    1.9431    1.3982 H   0  0  0  0  0  0  0  0  0  0  0  0
    3.2201   -1.5737    2.9444 H   0  0  0  0  0  0  0  0  0  0  0  0
   -1.7438    5.0019   -0.1400 H   0  0  0  0  0  0  0  0  0  0  0  0
    4.6266    0.1719    2.2351 H   0  0  0  0  0  0  0  0  0  0  0  0
    3.4062   -1.1586   -1.7025 H   0  0  0  0  0  0  0  0  0  0  0  0
    6.7486    0.9275    1.3179 H   0  0  0  0  0  0  0  0  0  0  0  0
    5.5379   -0.3779   -2.6129 H   0  0  0  0  0  0  0  0  0  0  0  0
  1 15  1  0  0  0  0
  1 22  1  0  0  0  0
  2 16  1  0  0  0  0
  3 23  1  0  0  0  0
  4 10  1  0  0  0  0
  4 38  1  0  0  0  0
  5  7  1  0  0  0  0
  5 12  1  0  0  0  0
  5 21  1  0  0  0  0
  6 15  2  0  0  0  0
  6 18  1  0  0  0  0
  7 25  2  0  0  0  0
  8 21  2  0  0  0  0
  8 25  1  0  0  0  0
  9 31  3  0  0  0  0
 10 11  1  0  0  0  0
 10 12  1  0  0  0  0
 10 13  1  0  0  0  0
 11 14  1  0  0  0  0
 11 15  1  0  0  0  0
 11 32  1  0  0  0  0
 12 33  1  0  0  0  0
 12 34  1  0  0  0  0
 13 16  2  0  0  0  0
 13 17  1  0  0  0  0
 14 35  1  0  0  0  0
 14 36  1  0  0  0  0
 14 37  1  0  0  0  0
 16 19  1  0  0  0  0
 17 20  2  0  0  0  0
 17 39  1  0  0  0  0
 18 22  2  0  0  0  0
 18 24  1  0  0  0  0
 19 23  2  0  0  0  0
 19 40  1  0  0  0  0
 20 23  1  0  0  0  0
 20 41  1  0  0  0  0
 21 42  1  0  0  0  0
 22 43  1  0  0  0  0
 24 26  2  0  0  0  0
 24 27  1  0  0  0  0
 25 44  1  0  0  0  0
 26 28  1  0  0  0  0
 26 45  1  0  0  0  0
 27 29  2  0  0  0  0
 27 46  1  0  0  0  0
 28 30  2  0  0  0  0
 28 47  1  0  0  0  0
 29 30  1  0  0  0  0
 29 48  1  0  0  0  0
 30 31  1  0  0  0  0
M  END
> <DATABASE_ID>
DB06440

> <DATABASE_NAME>
drugbank

> <ORIGINAL_SOURCE>
PUBCHEM

> <ORIGINAL_SOURCE_URL>
https://pubchem.ncbi.nlm.nih.gov/rest/pug/compound/inchikey/OPAHEYNNJWPQPX-RCDICMHDSA-N/SDF?record_type=3d

> <SMILES>
C[C@@H](C1=NC(=CS1)C1=CC=C(C=C1)C#N)[C@](O)(CN1C=NC=N1)C1=CC=C(F)C=C1F

> <INCHI_IDENTIFIER>
InChI=1S/C22H17F2N5OS/c1-14(21-28-20(10-31-21)16-4-2-15(9-25)3-5-16)22(30,11-29-13-26-12-27-29)18-7-6-17(23)8-19(18)24/h2-8,10,12-14,30H,11H2,1H3/t14-,22+/m0/s1

> <INCHI_KEY>
OPAHEYNNJWPQPX-RCDICMHDSA-N

> <FORMULA>
C22H17F2N5OS

> <MOLECULAR_WEIGHT>
437.47

> <EXACT_MASS>
437.112187687

> <JCHEM_ACCEPTOR_COUNT>
5

> <JCHEM_ATOM_COUNT>
48

> <JCHEM_AVERAGE_POLARIZABILITY>
43.06760041382108

> <JCHEM_BIOAVAILABILITY>
1

> <JCHEM_DONOR_COUNT>
1

> <JCHEM_FORMAL_CHARGE>
0

> <JCHEM_GHOSE_FILTER>
1

> <JCHEM_IUPAC>
4-{2-[(2R,3R)-3-(2,4-difluorophenyl)-3-hydroxy-4-(1H-1,2,4-triazol-1-yl)butan-2-yl]-1,3-thiazol-4-yl}benzonitrile

> <ALOGPS_LOGP>
3.48

> <JCHEM_LOGP>
4.143500234

> <ALOGPS_LOGS>
-4.44

> <JCHEM_MDDR_LIKE_RULE>
1

> <JCHEM_NUMBER_OF_RINGS>
4

> <JCHEM_PHYSIOLOGICAL_CHARGE>
0

> <JCHEM_PKA_STRONGEST_ACIDIC>
12.683221737543231

> <JCHEM_PKA_STRONGEST_BASIC>
2.4614978635511213

> <JCHEM_POLAR_SURFACE_AREA>
87.62

> <JCHEM_REFRACTIVITY>
123.94069999999999

> <JCHEM_ROTATABLE_BOND_COUNT>
6

> <JCHEM_RULE_OF_FIVE>
1

> <ALOGPS_SOLUBILITY>
1.58e-02 g/l

> <JCHEM_TRADITIONAL_IUPAC>
ravuconazole

> <JCHEM_VEBER_RULE>
0

$$$$

  Mrv1572004051615542D          

 53 57  0  0  0  0            999 V2000
   -3.3402   -3.6085    0.0000 C   0  0  0  0  0  0  0  0  0  0  0  0
    0.9040   -1.7652    0.0000 C   0  0  0  0  0  0  0  0  0  0  0  0
    3.3790    5.3794    0.0000 C   0  0  0  0  0  0  0  0  0  0  0  0
    1.7290    1.0926    0.0000 C   0  0  0  0  0  0  0  0  0  0  0  0
    4.6165    0.3781    0.0000 C   0  0  0  0  0  0  0  0  0  0  0  0
    4.2040    1.0926    0.0000 C   0  0  0  0  0  0  0  0  0  0  0  0
   -4.6165    1.1445    0.0000 C   0  0  0  0  0  0  0  0  0  0  0  0
   -3.1876    1.1445    0.0000 C   0  0  0  0  0  0  0  0  0  0  0  0
   -4.6165    0.3195    0.0000 C   0  0  0  0  0  0  0  0  0  0  0  0
   -3.1876    0.3195    0.0000 C   0  0  0  0  0  0  0  0  0  0  0  0
   -1.9254   -5.2301    0.0000 C   0  0  0  0  0  0  0  0  0  0  0  0
   -1.2580   -4.7451    0.0000 C   0  0  0  0  0  0  0  0  0  0  0  0
    4.2040   -0.3362    0.0000 C   0  0  0  0  0  0  0  0  0  0  0  0
   -2.7653   -4.0740    0.0000 C   0  0  0  0  0  0  0  0  0  0  0  0
   -3.9020    2.3820    0.0000 C   0  0  0  0  0  0  0  0  0  0  0  0
    3.3790    3.9505    0.0000 C   0  0  0  0  0  0  0  0  0  0  0  0
    2.9665    1.8071    0.0000 C   0  0  0  0  0  0  0  0  0  0  0  0
   -4.5695   -1.4028    0.0000 C   0  0  0  0  0  0  0  0  0  0  0  0
   -2.2704   -1.9481    0.0000 C   0  0  0  0  0  0  0  0  0  0  0  0
   -0.8183   -0.3833    0.0000 C   0  0  0  0  0  0  0  0  0  0  0  0
   -0.8183   -1.7182    0.0000 C   0  0  0  0  0  0  0  0  0  0  0  0
   -3.0046   -2.8549    0.0000 C   0  0  1  0  0  0  0  0  0  0  0  0
    0.4915   -1.0507    0.0000 C   0  0  0  0  0  0  0  0  0  0  0  0
   -3.9020    1.5570    0.0000 C   0  0  0  0  0  0  0  0  0  0  0  0
   -3.9020   -0.0929    0.0000 C   0  0  0  0  0  0  0  0  0  0  0  0
    3.3790    1.0926    0.0000 C   0  0  0  0  0  0  0  0  0  0  0  0
   -2.6791   -4.8945    0.0000 C   0  0  0  0  0  0  0  0  0  0  0  0
   -2.0979   -3.5891    0.0000 C   0  0  0  0  0  0  0  0  0  0  0  0
   -1.3442   -3.9247    0.0000 C   0  0  0  0  0  0  0  0  0  0  0  0
   -3.9020   -0.9179    0.0000 C   0  0  0  0  0  0  0  0  0  0  0  0
    2.9665    3.2360    0.0000 C   0  0  0  0  0  0  0  0  0  0  0  0
    2.9665    0.3781    0.0000 C   0  0  0  0  0  0  0  0  0  0  0  0
   -3.4895   -2.1874    0.0000 C   0  0  0  0  0  0  0  0  0  0  0  0
    1.7290   -0.3362    0.0000 C   0  0  0  0  0  0  0  0  0  0  0  0
   -2.1841   -2.7686    0.0000 C   0  0  1  0  0  0  0  0  0  0  0  0
   -3.3465   -5.3794    0.0000 F   0  0  0  0  0  0  0  0  0  0  0  0
   -0.6768   -3.4397    0.0000 F   0  0  0  0  0  0  0  0  0  0  0  0
   -3.9020    3.2070    0.0000 N   0  0  0  0  0  0  0  0  0  0  0  0
    2.9665    4.6650    0.0000 N   0  0  0  0  0  0  0  0  0  0  0  0
    3.3790   -0.3362    0.0000 N   0  0  0  0  0  0  0  0  0  0  0  0
   -1.6029   -0.6382    0.0000 N   0  0  0  0  0  0  0  0  0  0  0  0
   -3.2346   -1.4028    0.0000 N   0  0  0  0  0  0  0  0  0  0  0  0
    2.1415    0.3781    0.0000 N   0  0  0  0  0  0  0  0  0  0  0  0
   -0.3334   -1.0507    0.0000 N   0  3  0  0  0  0  0  0  0  0  0  0
   -1.6029   -1.4632    0.0000 N   0  0  0  0  0  0  0  0  0  0  0  0
    2.1415    3.2360    0.0000 O   0  0  0  0  0  0  0  0  0  0  0  0
    2.1415   -1.0507    0.0000 O   0  0  0  0  0  0  0  0  0  0  0  0
   -1.3637   -2.6824    0.0000 O   0  0  0  0  0  0  0  0  0  0  0  0
    3.3790    2.5215    0.0000 O   0  0  0  0  0  0  0  0  0  0  0  0
    0.9040   -0.3362    0.0000 O   0  0  0  0  0  0  0  0  0  0  0  0
   -4.3145   -2.1874    0.0000 S   0  0  0  0  0  0  0  0  0  0  0  0
   -3.8251   -2.9411    0.0000 H   0  0  0  0  0  0  0  0  0  0  0  0
    0.0790   -1.7652    0.0000 H   0  0  0  0  0  0  0  0  0  0  0  0
  6  5  2  0  0  0  0
  9  7  1  0  0  0  0
 10  8  2  0  0  0  0
 12 11  2  0  0  0  0
 13  5  1  0  0  0  0
 22  1  1  1  0  0  0
 23  2  1  0  0  0  0
 24  7  2  0  0  0  0
 24  8  1  0  0  0  0
 24 15  1  0  0  0  0
 25  9  2  0  0  0  0
 25 10  1  0  0  0  0
 26  6  1  0  0  0  0
 26 17  1  0  0  0  0
 27 11  1  0  0  0  0
 27 14  2  0  0  0  0
 28 14  1  0  0  0  0
 29 12  1  0  0  0  0
 29 28  2  0  0  0  0
 30 18  2  0  0  0  0
 30 25  1  0  0  0  0
 31 16  1  0  0  0  0
 32 26  2  0  0  0  0
 33 22  1  0  0  0  0
 35 19  1  0  0  0  0
 35 22  1  0  0  0  0
 35 28  1  6  0  0  0
 36 27  1  0  0  0  0
 37 29  1  0  0  0  0
 38 15  3  0  0  0  0
 39  3  1  0  0  0  0
 39 16  1  0  0  0  0
 40 13  2  0  0  0  0
 40 32  1  0  0  0  0
 41 20  2  0  0  0  0
 42 30  1  0  0  0  0
 42 33  2  0  0  0  0
 43  4  1  0  0  0  0
 43 32  1  0  0  0  0
 43 34  1  0  0  0  0
 44 20  1  0  0  0  0
 44 21  2  0  0  0  0
 44 23  1  0  0  0  0
 45 19  1  0  0  0  0
 45 21  1  0  0  0  0
 45 41  1  0  0  0  0
 46 31  2  0  0  0  0
 47 34  2  0  0  0  0
 35 48  1  1  0  0  0
 49 17  1  0  0  0  0
 49 31  1  0  0  0  0
 50 23  1  0  0  0  0
 50 34  1  0  0  0  0
 51 18  1  0  0  0  0
 51 33  1  0  0  0  0
 22 52  1  6  0  0  0
 53 23  1  0  0  0  0
M  CHG  1  44   1
M  END
> <DATABASE_ID>
DB06636

> <DATABASE_NAME>
drugbank

> <SMILES>
[H]C(C)(OC(=O)N(C)C1=C(COC(=O)CNC)C=CC=N1)[N+]1=CN(C[C@](O)(C2=C(F)C=CC(F)=C2)[C@@]([H])(C)C2=NC(=CS2)C2=CC=C(C=C2)C#N)N=C1

> <INCHI_IDENTIFIER>
InChI=1S/C35H35F2N8O5S/c1-22(33-42-30(18-51-33)25-9-7-24(15-38)8-10-25)35(48,28-14-27(36)11-12-29(28)37)19-45-21-44(20-41-45)23(2)50-34(47)43(4)32-26(6-5-13-40-32)17-49-31(46)16-39-3/h5-14,18,20-23,39,48H,16-17,19H2,1-4H3/q+1/t22-,23?,35+/m0/s1

> <INCHI_KEY>
RSWOJTICKMKTER-QXLBVTBOSA-N

> <FORMULA>
C35H35F2N8O5S

> <MOLECULAR_WEIGHT>
717.77

> <EXACT_MASS>
717.241370179

> <JCHEM_ACCEPTOR_COUNT>
9

> <JCHEM_ATOM_COUNT>
86

> <JCHEM_AVERAGE_POLARIZABILITY>
71.63137555841584

> <JCHEM_BIOAVAILABILITY>
0

> <JCHEM_DONOR_COUNT>
2

> <JCHEM_FORMAL_CHARGE>
1

> <JCHEM_GHOSE_FILTER>
0

> <JCHEM_IUPAC>
1-[(2R,3R)-3-[4-(4-cyanophenyl)-1,3-thiazol-2-yl]-2-(2,5-difluorophenyl)-2-hydroxybutyl]-4-[1-({methyl[3-({[2-(methylamino)acetyl]oxy}methyl)pyridin-2-yl]carbamoyl}oxy)ethyl]-1H-1,2,4-triazol-4-ium

> <ALOGPS_LOGP>
1.73

> <JCHEM_LOGP>
0.5240892791949233

> <ALOGPS_LOGS>
-5.16

> <JCHEM_MDDR_LIKE_RULE>
1

> <JCHEM_NUMBER_OF_RINGS>
5

> <JCHEM_PHYSIOLOGICAL_CHARGE>
1

> <JCHEM_PKA>
14.153925618665252

> <JCHEM_PKA_STRONGEST_ACIDIC>
12.574153445572495

> <JCHEM_PKA_STRONGEST_BASIC>
6.447909071606407

> <JCHEM_POLAR_SURFACE_AREA>
159.36999999999995

> <JCHEM_REFRACTIVITY>
193.86029999999997

> <JCHEM_ROTATABLE_BOND_COUNT>
15

> <JCHEM_RULE_OF_FIVE>
0

> <ALOGPS_SOLUBILITY>
5.16e-03 g/l

> <JCHEM_TRADITIONAL_IUPAC>
1-[(2R,3R)-3-[4-(4-cyanophenyl)-1,3-thiazol-2-yl]-2-(2,5-difluorophenyl)-2-hydroxybutyl]-4-[1-({methyl[3-({[2-(methylamino)acetyl]oxy}methyl)pyridin-2-yl]carbamoyl}oxy)ethyl]-1,2,4-triazol-4-ium

> <JCHEM_VEBER_RULE>
0

> <DRUGBANK_ID>
DB06636

> <DRUG_GROUPS>
approved; investigational

> <GENERIC_NAME>
Isavuconazonium

> <SYNONYMS>
Isavuconazonium

> <PRODUCTS>
Cresemba

> <SALTS>
Isavuconazonium sulfate

$$$$
64715
  -OEChem-10051720503D

 62 64  0     1  0  0  0  0  0999 V2000
   -2.2403    0.7906    0.1250 O   0  0  0  0  0  0  0  0  0  0  0  0
    3.6547   -0.2516    0.7335 O   0  0  0  0  0  0  0  0  0  0  0  0
    5.0332    2.6904   -0.2638 O   0  0  0  0  0  0  0  0  0  0  0  0
   -2.4253    2.5118    1.6499 O   0  0  0  0  0  0  0  0  0  0  0  0
    5.1915   -0.4088    2.3695 O   0  0  0  0  0  0  0  0  0  0  0  0
   -0.2856   -1.3345   -0.4939 C   0  0  2  0  0  0  0  0  0  0  0  0
   -1.4547   -1.5092    0.5196 C   0  0  1  0  0  0  0  0  0  0  0  0
    0.1789   -2.7094   -1.0588 C   0  0  2  0  0  0  0  0  0  0  0  0
   -1.9424   -0.1744    1.1334 C   0  0  2  0  0  0  0  0  0  0  0  0
    0.8948   -0.5473    0.0897 C   0  0  0  0  0  0  0  0  0  0  0  0
   -2.6031   -2.2908   -0.1157 C   0  0  0  0  0  0  0  0  0  0  0  0
   -3.2088   -0.3864    1.9643 C   0  0  0  0  0  0  0  0  0  0  0  0
    1.9690   -0.3141   -0.9633 C   0  0  0  0  0  0  0  0  0  0  0  0
   -0.9998   -3.5481   -1.4826 C   0  0  0  0  0  0  0  0  0  0  0  0
   -4.3449   -0.9733    1.1273 C   0  0  0  0  0  0  0  0  0  0  0  0
   -2.2531   -3.3356   -1.0605 C   0  0  0  0  0  0  0  0  0  0  0  0
   -3.8925   -2.0334    0.1691 C   0  0  0  0  0  0  0  0  0  0  0  0
    3.1303    0.4884   -0.3906 C   0  0  2  0  0  0  0  0  0  0  0  0
    1.0533   -3.5306   -0.1049 C   0  0  0  0  0  0  0  0  0  0  0  0
    4.1889    0.7568   -1.4502 C   0  0  0  0  0  0  0  0  0  0  0  0
    5.3900    1.4207   -0.8031 C   0  0  2  0  0  0  0  0  0  0  0  0
   -2.7062    1.9940    0.5766 C   0  0  0  0  0  0  0  0  0  0  0  0
    5.9326    0.5467    0.3109 C   0  0  0  0  0  0  0  0  0  0  0  0
    4.8924   -0.0367    1.2365 C   0  0  0  0  0  0  0  0  0  0  0  0
   -3.6591    2.5907   -0.4453 C   0  0  2  0  0  0  0  0  0  0  0  0
   -2.9174    3.4849   -1.4493 C   0  0  0  0  0  0  0  0  0  0  0  0
   -4.7312    3.3800    0.3008 C   0  0  0  0  0  0  0  0  0  0  0  0
   -1.8452    2.7294   -2.2241 C   0  0  0  0  0  0  0  0  0  0  0  0
   -0.6762   -0.7546   -1.3451 H   0  0  0  0  0  0  0  0  0  0  0  0
   -1.0902   -2.1240    1.3558 H   0  0  0  0  0  0  0  0  0  0  0  0
    0.7550   -2.5275   -1.9748 H   0  0  0  0  0  0  0  0  0  0  0  0
   -1.1580    0.2269    1.7868 H   0  0  0  0  0  0  0  0  0  0  0  0
    0.5522    0.4364    0.4295 H   0  0  0  0  0  0  0  0  0  0  0  0
    1.2933   -1.0545    0.9751 H   0  0  0  0  0  0  0  0  0  0  0  0
   -2.9735   -1.0886    2.7761 H   0  0  0  0  0  0  0  0  0  0  0  0
   -3.5672    0.5213    2.4588 H   0  0  0  0  0  0  0  0  0  0  0  0
    2.3692   -1.2651   -1.3275 H   0  0  0  0  0  0  0  0  0  0  0  0
    1.5406    0.2145   -1.8236 H   0  0  0  0  0  0  0  0  0  0  0  0
   -0.8117   -4.3615   -2.1789 H   0  0  0  0  0  0  0  0  0  0  0  0
   -5.0988   -1.3965    1.8013 H   0  0  0  0  0  0  0  0  0  0  0  0
   -4.8426   -0.1808    0.5573 H   0  0  0  0  0  0  0  0  0  0  0  0
   -3.0478   -3.9723   -1.4399 H   0  0  0  0  0  0  0  0  0  0  0  0
   -4.6831   -2.6010   -0.3168 H   0  0  0  0  0  0  0  0  0  0  0  0
    2.7371    1.4338    0.0028 H   0  0  0  0  0  0  0  0  0  0  0  0
    0.5513   -3.7141    0.8509 H   0  0  0  0  0  0  0  0  0  0  0  0
    1.2910   -4.5082   -0.5415 H   0  0  0  0  0  0  0  0  0  0  0  0
    2.0092   -3.0429    0.1042 H   0  0  0  0  0  0  0  0  0  0  0  0
    4.5079   -0.1822   -1.9191 H   0  0  0  0  0  0  0  0  0  0  0  0
    3.7707    1.4025   -2.2309 H   0  0  0  0  0  0  0  0  0  0  0  0
    6.1687    1.5994   -1.5518 H   0  0  0  0  0  0  0  0  0  0  0  0
    6.6290    1.1290    0.9259 H   0  0  0  0  0  0  0  0  0  0  0  0
    6.4754   -0.3028   -0.1202 H   0  0  0  0  0  0  0  0  0  0  0  0
   -4.1590    1.7697   -0.9746 H   0  0  0  0  0  0  0  0  0  0  0  0
    4.5249    2.5547    0.5530 H   0  0  0  0  0  0  0  0  0  0  0  0
   -3.6381    3.9061   -2.1605 H   0  0  0  0  0  0  0  0  0  0  0  0
   -2.4460    4.3285   -0.9302 H   0  0  0  0  0  0  0  0  0  0  0  0
   -5.2400    2.7489    1.0381 H   0  0  0  0  0  0  0  0  0  0  0  0
   -5.4865    3.7593   -0.3956 H   0  0  0  0  0  0  0  0  0  0  0  0
   -4.3055    4.2369    0.8348 H   0  0  0  0  0  0  0  0  0  0  0  0
   -1.0150    2.4281   -1.5781 H   0  0  0  0  0  0  0  0  0  0  0  0
   -1.4308    3.3714   -3.0083 H   0  0  0  0  0  0  0  0  0  0  0  0
   -2.2586    1.8363   -2.7033 H   0  0  0  0  0  0  0  0  0  0  0  0
  1  9  1  0  0  0  0
  1 22  1  0  0  0  0
  2 18  1  0  0  0  0
  2 24  1  0  0  0  0
  3 21  1  0  0  0  0
  3 54  1  0  0  0  0
  4 22  2  0  0  0  0
  5 24  2  0  0  0  0
  6  7  1  0  0  0  0
  6  8  1  0  0  0  0
  6 10  1  0  0  0  0
  6 29  1  0  0  0  0
  7  9  1  0  0  0  0
  7 11  1  0  0  0  0
  7 30  1  0  0  0  0
  8 14  1  0  0  0  0
  8 19  1  0  0  0  0
  8 31  1  0  0  0  0
  9 12  1  0  0  0  0
  9 32  1  0  0  0  0
 10 13  1  0  0  0  0
 10 33  1  0  0  0  0
 10 34  1  0  0  0  0
 11 16  1  0  0  0  0
 11 17  2  0  0  0  0
 12 15  1  0  0  0  0
 12 35  1  0  0  0  0
 12 36  1  0  0  0  0
 13 18  1  0  0  0  0
 13 37  1  0  0  0  0
 13 38  1  0  0  0  0
 14 16  2  0  0  0  0
 14 39  1  0  0  0  0
 15 17  1  0  0  0  0
 15 40  1  0  0  0  0
 15 41  1  0  0  0  0
 16 42  1  0  0  0  0
 17 43  1  0  0  0  0
 18 20  1  0  0  0  0
 18 44  1  0  0  0  0
 19 45  1  0  0  0  0
 19 46  1  0  0  0  0
 19 47  1  0  0  0  0
 20 21  1  0  0  0  0
 20 48  1  0  0  0  0
 20 49  1  0  0  0  0
 21 23  1  0  0  0  0
 21 50  1  0  0  0  0
 22 25  1  0  0  0  0
 23 24  1  0  0  0  0
 23 51  1  0  0  0  0
 23 52  1  0  0  0  0
 25 26  1  0  0  0  0
 25 27  1  0  0  0  0
 25 53  1  0  0  0  0
 26 28  1  0  0  0  0
 26 55  1  0  0  0  0
 26 56  1  0  0  0  0
 27 57  1  0  0  0  0
 27 58  1  0  0  0  0
 27 59  1  0  0  0  0
 28 60  1  0  0  0  0
 28 61  1  0  0  0  0
 28 62  1  0  0  0  0
M  END
> <DATABASE_ID>
DB06693

> <DATABASE_NAME>
drugbank

> <ORIGINAL_SOURCE>
PUBCHEM

> <ORIGINAL_SOURCE_URL>
https://pubchem.ncbi.nlm.nih.gov/rest/pug/compound/inchikey/AJLFOPYRIVGYMJ-INTXDZFKSA-N/SDF?record_type=3d

> <SMILES>
[H][C@]12[C@H](CCC=C1C=C[C@H](C)[C@@H]2CC[C@@H]1C[C@@H](O)CC(=O)O1)OC(=O)[C@@H](C)CC

> <INCHI_IDENTIFIER>
InChI=1S/C23H34O5/c1-4-14(2)23(26)28-20-7-5-6-16-9-8-15(3)19(22(16)20)11-10-18-12-17(24)13-21(25)27-18/h6,8-9,14-15,17-20,22,24H,4-5,7,10-13H2,1-3H3/t14-,15-,17+,18+,19-,20-,22-/m0/s1

> <INCHI_KEY>
AJLFOPYRIVGYMJ-INTXDZFKSA-N

> <FORMULA>
C23H34O5

> <MOLECULAR_WEIGHT>
390.52

> <EXACT_MASS>
390.240624195

> <JCHEM_ACCEPTOR_COUNT>
3

> <JCHEM_ATOM_COUNT>
62

> <JCHEM_AVERAGE_POLARIZABILITY>
43.57364522635587

> <JCHEM_BIOAVAILABILITY>
1

> <JCHEM_DONOR_COUNT>
1

> <JCHEM_FORMAL_CHARGE>
0

> <JCHEM_GHOSE_FILTER>
1

> <JCHEM_IUPAC>
(1S,7S,8S,8aR)-8-{2-[(2R,4R)-4-hydroxy-6-oxooxan-2-yl]ethyl}-7-methyl-1,2,3,7,8,8a-hexahydronaphthalen-1-yl (2S)-2-methylbutanoate

> <ALOGPS_LOGP>
4.13

> <JCHEM_LOGP>
3.6151678180000006

> <ALOGPS_LOGS>
-4.08

> <JCHEM_MDDR_LIKE_RULE>
1

> <JCHEM_NUMBER_OF_RINGS>
3

> <JCHEM_PHYSIOLOGICAL_CHARGE>
0

> <JCHEM_PKA_STRONGEST_ACIDIC>
14.914537666911102

> <JCHEM_PKA_STRONGEST_BASIC>
-2.8361812244930835

> <JCHEM_POLAR_SURFACE_AREA>
72.83

> <JCHEM_REFRACTIVITY>
108.63379999999998

> <JCHEM_ROTATABLE_BOND_COUNT>
7

> <JCHEM_RULE_OF_FIVE>
1

> <ALOGPS_SOLUBILITY>
3.21e-02 g/l

> <JCHEM_TRADITIONAL_IUPAC>
mevastatin

> <JCHEM_VEBER_RULE>
0

$$$$
6436223
  -OEChem-10051722163D

102103  0     1  0  0  0  0  0999 V2000
   -5.1591    0.1920    0.5541 O   0  0  0  0  0  0  0  0  0  0  0  0
   -6.3627    0.2737   -1.4898 O   0  0  0  0  0  0  0  0  0  0  0  0
   -4.9156   -3.7121   -0.8038 O   0  0  0  0  0  0  0  0  0  0  0  0
   -2.7694    0.9520    0.6335 O   0  0  0  0  0  0  0  0  0  0  0  0
    0.4224    0.7211   -1.3117 O   0  0  0  0  0  0  0  0  0  0  0  0
   -0.0105    4.0405    0.1855 O   0  0  0  0  0  0  0  0  0  0  0  0
   -0.4063   -1.0315   -0.0500 O   0  0  0  0  0  0  0  0  0  0  0  0
    2.2507   -0.8227   -2.4419 O   0  0  0  0  0  0  0  0  0  0  0  0
    6.6906    0.7413   -0.3782 O   0  0  0  0  0  0  0  0  0  0  0  0
   -5.0967    0.0460   -0.8682 C   0  0  1  0  0  0  0  0  0  0  0  0
   -5.6072   -2.1827    0.9453 C   0  0  2  0  0  0  0  0  0  0  0  0
   -6.0482   -0.7276    1.2027 C   0  0  1  0  0  0  0  0  0  0  0  0
   -4.1026    1.0833   -1.3899 C   0  0  2  0  0  0  0  0  0  0  0  0
   -4.6176   -1.3633   -1.2233 C   0  0  0  0  0  0  0  0  0  0  0  0
   -5.4939   -2.4311   -0.5689 C   0  0  1  0  0  0  0  0  0  0  0  0
   -2.6809    0.9296   -0.7943 C   0  0  1  0  0  0  0  0  0  0  0  0
   -6.0385   -0.3582    2.6834 C   0  0  0  0  0  0  0  0  0  0  0  0
   -1.6278    1.9744   -1.2515 C   0  0  1  0  0  0  0  0  0  0  0  0
   -6.5502   -3.2030    1.5909 C   0  0  0  0  0  0  0  0  0  0  0  0
   -4.6542    2.4887   -1.1169 C   0  0  0  0  0  0  0  0  0  0  0  0
   -0.2867    1.7336   -0.5649 C   0  0  2  0  0  0  0  0  0  0  0  0
   -6.5162    1.0789    2.8825 C   0  0  0  0  0  0  0  0  0  0  0  0
   -4.6432   -0.5461    3.2756 C   0  0  0  0  0  0  0  0  0  0  0  0
   -1.4353    1.9752   -2.7722 C   0  0  0  0  0  0  0  0  0  0  0  0
    0.6103    2.9919   -0.5525 C   0  0  2  0  0  0  0  0  0  0  0  0
    2.0116    2.8236   -0.0021 C   0  0  0  0  0  0  0  0  0  0  0  0
    0.4069   -0.5464   -0.8193 C   0  0  0  0  0  0  0  0  0  0  0  0
    2.4508    1.8443    0.8064 C   0  0  0  0  0  0  0  0  0  0  0  0
    0.3984    5.3161   -0.2845 C   0  0  0  0  0  0  0  0  0  0  0  0
    6.6164   -0.5319    1.7307 C   0  0  2  0  0  0  0  0  0  0  0  0
    1.6827   -1.1776   -1.2380 C   0  0  0  0  0  0  0  0  0  0  0  0
    6.9193   -0.5423    0.1974 C   0  0  1  0  0  0  0  0  0  0  0  0
    3.8410    1.6860    1.1875 C   0  0  0  0  0  0  0  0  0  0  0  0
    5.8559    0.7080    2.2769 C   0  0  0  0  0  0  0  0  0  0  0  0
    6.1791   -1.6618   -0.5938 C   0  0  1  0  0  0  0  0  0  0  0  0
    4.3608    0.7468    2.0054 C   0  0  0  0  0  0  0  0  0  0  0  0
    2.3196   -1.9145   -0.3133 C   0  0  0  0  0  0  0  0  0  0  0  0
    7.9544   -0.6315    2.4904 C   0  0  0  0  0  0  0  0  0  0  0  0
    4.6850   -1.4577   -0.6242 C   0  0  0  0  0  0  0  0  0  0  0  0
    3.7090   -2.3549   -0.3769 C   0  0  0  0  0  0  0  0  0  0  0  0
    6.6847   -1.7530   -2.0386 C   0  0  0  0  0  0  0  0  0  0  0  0
    3.5611   -0.2708    2.7801 C   0  0  0  0  0  0  0  0  0  0  0  0
    3.9199   -3.8001   -0.0341 C   0  0  0  0  0  0  0  0  0  0  0  0
    1.4924   -1.3262   -3.5256 C   0  0  0  0  0  0  0  0  0  0  0  0
   -4.6031   -2.3574    1.3506 H   0  0  0  0  0  0  0  0  0  0  0  0
   -7.0620   -0.5726    0.8105 H   0  0  0  0  0  0  0  0  0  0  0  0
   -4.0429    0.9781   -2.4812 H   0  0  0  0  0  0  0  0  0  0  0  0
   -3.5984   -1.5564   -0.8750 H   0  0  0  0  0  0  0  0  0  0  0  0
   -4.6138   -1.5157   -2.3098 H   0  0  0  0  0  0  0  0  0  0  0  0
   -6.4925   -2.4505   -1.0188 H   0  0  0  0  0  0  0  0  0  0  0  0
   -2.3035   -0.0500   -1.0838 H   0  0  0  0  0  0  0  0  0  0  0  0
   -6.7363   -1.0012    3.2316 H   0  0  0  0  0  0  0  0  0  0  0  0
   -1.9820    2.9624   -0.9374 H   0  0  0  0  0  0  0  0  0  0  0  0
   -7.5827   -3.0501    1.2593 H   0  0  0  0  0  0  0  0  0  0  0  0
   -6.2632   -4.2277    1.3326 H   0  0  0  0  0  0  0  0  0  0  0  0
   -6.5279   -3.1357    2.6823 H   0  0  0  0  0  0  0  0  0  0  0  0
   -4.0364    3.2608   -1.5845 H   0  0  0  0  0  0  0  0  0  0  0  0
   -4.7214    2.7127   -0.0476 H   0  0  0  0  0  0  0  0  0  0  0  0
   -5.6560    2.6155   -1.5414 H   0  0  0  0  0  0  0  0  0  0  0  0
   -0.4334    1.4236    0.4769 H   0  0  0  0  0  0  0  0  0  0  0  0
   -6.8590   -0.5557   -1.5557 H   0  0  0  0  0  0  0  0  0  0  0  0
   -6.5927    1.3132    3.9499 H   0  0  0  0  0  0  0  0  0  0  0  0
   -7.5069    1.2270    2.4398 H   0  0  0  0  0  0  0  0  0  0  0  0
   -5.8303    1.8061    2.4348 H   0  0  0  0  0  0  0  0  0  0  0  0
   -4.6282   -0.1912    4.3131 H   0  0  0  0  0  0  0  0  0  0  0  0
   -4.3469   -1.5979    3.3123 H   0  0  0  0  0  0  0  0  0  0  0  0
   -3.8759    0.0150    2.7381 H   0  0  0  0  0  0  0  0  0  0  0  0
   -4.8623   -3.8375   -1.7667 H   0  0  0  0  0  0  0  0  0  0  0  0
   -2.3395    2.3424   -3.2693 H   0  0  0  0  0  0  0  0  0  0  0  0
   -0.6224    2.6309   -3.0948 H   0  0  0  0  0  0  0  0  0  0  0  0
   -1.2435    0.9701   -3.1623 H   0  0  0  0  0  0  0  0  0  0  0  0
   -2.9423    1.8665    0.9130 H   0  0  0  0  0  0  0  0  0  0  0  0
    0.7497    3.3004   -1.5969 H   0  0  0  0  0  0  0  0  0  0  0  0
    2.7361    3.5530   -0.3627 H   0  0  0  0  0  0  0  0  0  0  0  0
    1.7443    1.1127    1.1768 H   0  0  0  0  0  0  0  0  0  0  0  0
    1.4672    5.4845   -0.1261 H   0  0  0  0  0  0  0  0  0  0  0  0
    0.1448    5.4427   -1.3419 H   0  0  0  0  0  0  0  0  0  0  0  0
   -0.1468    6.0742    0.2852 H   0  0  0  0  0  0  0  0  0  0  0  0
    6.0684   -1.4447    1.9937 H   0  0  0  0  0  0  0  0  0  0  0  0
    7.9925   -0.7338    0.0641 H   0  0  0  0  0  0  0  0  0  0  0  0
    4.5263    2.3943    0.7237 H   0  0  0  0  0  0  0  0  0  0  0  0
    5.9737    0.7469    3.3692 H   0  0  0  0  0  0  0  0  0  0  0  0
    6.3420    1.6249    1.9188 H   0  0  0  0  0  0  0  0  0  0  0  0
    6.4261   -2.6089   -0.1013 H   0  0  0  0  0  0  0  0  0  0  0  0
    1.8278   -2.1492    0.6296 H   0  0  0  0  0  0  0  0  0  0  0  0
    7.7872   -0.6995    3.5707 H   0  0  0  0  0  0  0  0  0  0  0  0
    8.5854    0.2429    2.2972 H   0  0  0  0  0  0  0  0  0  0  0  0
    8.5075   -1.5280    2.1894 H   0  0  0  0  0  0  0  0  0  0  0  0
    4.3904   -0.4353   -0.8588 H   0  0  0  0  0  0  0  0  0  0  0  0
    7.7729   -1.8735   -2.0627 H   0  0  0  0  0  0  0  0  0  0  0  0
    6.2462   -2.6189   -2.5482 H   0  0  0  0  0  0  0  0  0  0  0  0
    6.4281   -0.8628   -2.6233 H   0  0  0  0  0  0  0  0  0  0  0  0
    3.7648   -0.1659    3.8514 H   0  0  0  0  0  0  0  0  0  0  0  0
    2.4810   -0.1724    2.6557 H   0  0  0  0  0  0  0  0  0  0  0  0
    3.8317   -1.2874    2.4833 H   0  0  0  0  0  0  0  0  0  0  0  0
    7.0821    0.7466   -1.2674 H   0  0  0  0  0  0  0  0  0  0  0  0
    3.2611   -4.4352   -0.6375 H   0  0  0  0  0  0  0  0  0  0  0  0
    3.6975   -3.9805    1.0232 H   0  0  0  0  0  0  0  0  0  0  0  0
    4.9406   -4.1399   -0.2263 H   0  0  0  0  0  0  0  0  0  0  0  0
    1.3890   -2.4155   -3.4641 H   0  0  0  0  0  0  0  0  0  0  0  0
    0.5047   -0.8573   -3.5804 H   0  0  0  0  0  0  0  0  0  0  0  0
    2.0259   -1.0907   -4.4514 H   0  0  0  0  0  0  0  0  0  0  0  0
  1 10  1  0  0  0  0
  1 12  1  0  0  0  0
  2 10  1  0  0  0  0
  2 61  1  0  0  0  0
  3 15  1  0  0  0  0
  3 68  1  0  0  0  0
  4 16  1  0  0  0  0
  4 72  1  0  0  0  0
  5 21  1  0  0  0  0
  5 27  1  0  0  0  0
  6 25  1  0  0  0  0
  6 29  1  0  0  0  0
  7 27  2  0  0  0  0
  8 31  1  0  0  0  0
  8 44  1  0  0  0  0
  9 32  1  0  0  0  0
  9 96  1  0  0  0  0
 10 13  1  0  0  0  0
 10 14  1  0  0  0  0
 11 12  1  0  0  0  0
 11 15  1  0  0  0  0
 11 19  1  0  0  0  0
 11 45  1  0  0  0  0
 12 17  1  0  0  0  0
 12 46  1  0  0  0  0
 13 16  1  0  0  0  0
 13 20  1  0  0  0  0
 13 47  1  0  0  0  0
 14 15  1  0  0  0  0
 14 48  1  0  0  0  0
 14 49  1  0  0  0  0
 15 50  1  0  0  0  0
 16 18  1  0  0  0  0
 16 51  1  0  0  0  0
 17 22  1  0  0  0  0
 17 23  1  0  0  0  0
 17 52  1  0  0  0  0
 18 21  1  0  0  0  0
 18 24  1  0  0  0  0
 18 53  1  0  0  0  0
 19 54  1  0  0  0  0
 19 55  1  0  0  0  0
 19 56  1  0  0  0  0
 20 57  1  0  0  0  0
 20 58  1  0  0  0  0
 20 59  1  0  0  0  0
 21 25  1  0  0  0  0
 21 60  1  0  0  0  0
 22 62  1  0  0  0  0
 22 63  1  0  0  0  0
 22 64  1  0  0  0  0
 23 65  1  0  0  0  0
 23 66  1  0  0  0  0
 23 67  1  0  0  0  0
 24 69  1  0  0  0  0
 24 70  1  0  0  0  0
 24 71  1  0  0  0  0
 25 26  1  0  0  0  0
 25 73  1  0  0  0  0
 26 28  2  0  0  0  0
 26 74  1  0  0  0  0
 27 31  1  0  0  0  0
 28 33  1  0  0  0  0
 28 75  1  0  0  0  0
 29 76  1  0  0  0  0
 29 77  1  0  0  0  0
 29 78  1  0  0  0  0
 30 32  1  0  0  0  0
 30 34  1  0  0  0  0
 30 38  1  0  0  0  0
 30 79  1  0  0  0  0
 31 37  2  0  0  0  0
 32 35  1  0  0  0  0
 32 80  1  0  0  0  0
 33 36  2  0  0  0  0
 33 81  1  0  0  0  0
 34 36  1  0  0  0  0
 34 82  1  0  0  0  0
 34 83  1  0  0  0  0
 35 39  1  0  0  0  0
 35 41  1  0  0  0  0
 35 84  1  0  0  0  0
 36 42  1  0  0  0  0
 37 40  1  0  0  0  0
 37 85  1  0  0  0  0
 38 86  1  0  0  0  0
 38 87  1  0  0  0  0
 38 88  1  0  0  0  0
 39 40  2  0  0  0  0
 39 89  1  0  0  0  0
 40 43  1  0  0  0  0
 41 90  1  0  0  0  0
 41 91  1  0  0  0  0
 41 92  1  0  0  0  0
 42 93  1  0  0  0  0
 42 94  1  0  0  0  0
 42 95  1  0  0  0  0
 43 97  1  0  0  0  0
 43 98  1  0  0  0  0
 43 99  1  0  0  0  0
 44100  1  0  0  0  0
 44101  1  0  0  0  0
 44102  1  0  0  0  0
M  END
> <DATABASE_ID>
DB06733

> <DATABASE_NAME>
drugbank

> <ORIGINAL_SOURCE>
PUBCHEM

> <ORIGINAL_SOURCE_URL>
https://pubchem.ncbi.nlm.nih.gov/rest/pug/compound/inchikey/XDHNQDDQEHDUTM-JQWOJBOSSA-N/SDF?record_type=3d

> <SMILES>
CO[C@H]1\C=C\C=C(C)\C[C@H](C)[C@H](O)[C@H](C)\C=C(/C)\C=C(OC)\C(=O)O[C@@H]1[C@@H](C)[C@@H](O)[C@H](C)[C@@]1(O)C[C@@H](O)[C@H](C)[C@H](O1)C(C)C

> <INCHI_IDENTIFIER>
InChI=1S/C35H58O9/c1-19(2)32-24(7)27(36)18-35(40,44-32)26(9)31(38)25(8)33-28(41-10)14-12-13-20(3)15-22(5)30(37)23(6)16-21(4)17-29(42-11)34(39)43-33/h12-14,16-17,19,22-28,30-33,36-38,40H,15,18H2,1-11H3/b14-12+,20-13+,21-16+,29-17-/t22-,23+,24-,25-,26-,27+,28-,30-,31+,32+,33+,35+/m0/s1

> <INCHI_KEY>
XDHNQDDQEHDUTM-JQWOJBOSSA-N

> <FORMULA>
C35H58O9

> <MOLECULAR_WEIGHT>
622.84

> <EXACT_MASS>
622.408083448

> <JCHEM_ACCEPTOR_COUNT>
8

> <JCHEM_ATOM_COUNT>
102

> <JCHEM_AVERAGE_POLARIZABILITY>
69.33031918961508

> <JCHEM_BIOAVAILABILITY>
0

> <JCHEM_DONOR_COUNT>
4

> <JCHEM_FORMAL_CHARGE>
0

> <JCHEM_GHOSE_FILTER>
0

> <JCHEM_IUPAC>
(3Z,5E,7R,8S,9S,11E,13E,15S,16R)-16-[(2S,3R,4S)-4-[(2R,4R,5S,6R)-2,4-dihydroxy-5-methyl-6-(propan-2-yl)oxan-2-yl]-3-hydroxypentan-2-yl]-8-hydroxy-3,15-dimethoxy-5,7,9,11-tetramethyl-1-oxacyclohexadeca-3,5,11,13-tetraen-2-one

> <ALOGPS_LOGP>
3.89

> <JCHEM_LOGP>
5.081522923

> <ALOGPS_LOGS>
-4.60

> <JCHEM_MDDR_LIKE_RULE>
0

> <JCHEM_NUMBER_OF_RINGS>
2

> <JCHEM_PHYSIOLOGICAL_CHARGE>
0

> <JCHEM_PKA>
14.36775477175016

> <JCHEM_PKA_STRONGEST_ACIDIC>
11.6894535546142

> <JCHEM_PKA_STRONGEST_BASIC>
-0.7344085907907704

> <JCHEM_POLAR_SURFACE_AREA>
134.91000000000003

> <JCHEM_REFRACTIVITY>
174.52820000000006

> <JCHEM_ROTATABLE_BOND_COUNT>
7

> <JCHEM_RULE_OF_FIVE>
0

> <ALOGPS_SOLUBILITY>
1.55e-02 g/l

> <JCHEM_TRADITIONAL_IUPAC>
bafilomycin A1

> <JCHEM_VEBER_RULE>
0

$$$$

  Mrv1718006231812412D          

  8  8  0  0  0  0            999 V2000
    0.3550   -0.4109    0.0000 N   0  3  0  0  0  0  0  0  0  0  0  0
    0.3646    0.4109    0.0000 C   0  0  0  0  0  0  0  0  0  0  0  0
    1.0796   -0.8340    0.0000 O   0  5  0  0  0  0  0  0  0  0  0  0
    1.0698    0.8145    0.0000 S   0  0  0  0  0  0  0  0  0  0  0  0
   -0.3744   -0.8194    0.0000 C   0  0  0  0  0  0  0  0  0  0  0  0
   -0.3598    0.8340    0.0000 C   0  0  0  0  0  0  0  0  0  0  0  0
   -1.0796   -0.3963    0.0000 C   0  0  0  0  0  0  0  0  0  0  0  0
   -1.0796    0.4255    0.0000 C   0  0  0  0  0  0  0  0  0  0  0  0
  2  1  2  0  0  0  0
  3  1  1  0  0  0  0
  4  2  1  0  0  0  0
  5  1  1  0  0  0  0
  6  2  1  0  0  0  0
  7  5  2  0  0  0  0
  8  7  1  0  0  0  0
  6  8  2  0  0  0  0
M  CHG  2   1   1   3  -1
M  END
> <DATABASE_ID>
DB06815

> <DATABASE_NAME>
drugbank

> <SMILES>
[O-][N+]1=C(S)C=CC=C1

> <INCHI_IDENTIFIER>
InChI=1S/C5H5NOS/c7-6-4-2-1-3-5(6)8/h1-4,8H

> <INCHI_KEY>
FGVVTMRZYROCTH-UHFFFAOYSA-N

> <FORMULA>
C5H5NOS

> <MOLECULAR_WEIGHT>
127.16

> <EXACT_MASS>
127.009184959

> <JCHEM_ACCEPTOR_COUNT>
1

> <JCHEM_ATOM_COUNT>
13

> <JCHEM_AVERAGE_POLARIZABILITY>
12.194941700118832

> <JCHEM_BIOAVAILABILITY>
1

> <JCHEM_DONOR_COUNT>
1

> <JCHEM_FORMAL_CHARGE>
0

> <JCHEM_GHOSE_FILTER>
0

> <JCHEM_IUPAC>
2-sulfanylpyridin-1-ium-1-olate

> <ALOGPS_LOGP>
0.87

> <JCHEM_LOGP>
0.19550161366666666

> <ALOGPS_LOGS>
-1.63

> <JCHEM_MDDR_LIKE_RULE>
0

> <JCHEM_NUMBER_OF_RINGS>
1

> <JCHEM_PHYSIOLOGICAL_CHARGE>
-1

> <JCHEM_PKA_STRONGEST_ACIDIC>
6.842894405426888

> <JCHEM_PKA_STRONGEST_BASIC>
0.6608085663731048

> <JCHEM_POLAR_SURFACE_AREA>
26.939999999999998

> <JCHEM_REFRACTIVITY>
34.4765

> <JCHEM_ROTATABLE_BOND_COUNT>
0

> <JCHEM_RULE_OF_FIVE>
1

> <ALOGPS_SOLUBILITY>
3.00e+00 g/l

> <JCHEM_TRADITIONAL_IUPAC>
2-mercaptopyridine n-oxide

> <JCHEM_VEBER_RULE>
1

> <DRUGBANK_ID>
DB06815

> <DRUG_GROUPS>
approved

> <GENERIC_NAME>
Pyrithione

> <SYNONYMS>
2-pyridinethiol 1-oxide; Omadine; Pyridinethiol N-oxide

> <PRODUCTS>
2 In 1; 2 In 1 Anti-dandruff Shampoo and Conditioner; 2 In 1 Conditioning Dandruff Shampoo; 2 In 1 Conditioning Dandruff Treatment Shampoo; 2 In 1 Dandruff Relief Shampoo & Conditioner; 2 In 1 Dandruff Shampoo Plus Conditioner for Men; 2 In 1 Dandruff Shampoo and Conditioner for Dry Scalp; 2 in 1 Antidandruff; 2 in 1 Dandruff; 2in1 Dandruff and Conditioner; 2in1 Men Advanced Series Bourbon; 2in1 Men Advanced Series Charcoal; 2in1 Men Advanced Series Deep Sea Minerals; 2in1 Men Advanced Series Fiji; 2in1 Men Advanced Series Full & Thick; 2in1 Men Advanced Series Pure Sport; 2in1 Men Advanced Series Refreshing Menthol; 2in1 Men Advanced Series Sage & Mint; 2in1 Men Advanced Series Sandalwood; 2in1 Men Advanced Series Swagger; 574H Cell Care; Actiprep; Active Control; Actrol Dandruff Shampoo; Actrol Dandruff Shampoo - 1.2%; Actrol Dandruff Shampoo 1.2%; Add More Hair; Advance Techniques Keep Clear 2-IN-1 Anti-dandruff Shampoo; Advance Techniques Keep Clear 2-in-1 Anti-Dandruff; Advance Techniques Keep Clear Anti-Dandruff Treatment; Advanced Herbal Care for thinning-damaged hair; Advanced Seborrheic Dermatitis Therapy; AffirmCare Scalp Therapy Anti-Dandruff Exfoliating Masque; AffirmCare Scalp Therapy Hydrating Anti-Dandruff; AffirmCare Scalp Therapy Hydrating Anti-Dandruff Conditioner; Alberto VO5 2 in 1 Dandruff; Aloe Coal 01; Aloe Coal 02 Conditioner; Aloe Vera 2in1; American Crew; American Crew Anti-Dandruff plus Sebum Control; American Crew Classic Anti-dandruff Shampoo; Anti Dandruff Formula Shampoo; Anti Hair Loss; Anti-Dandruff Juniper and Eucalyptus; Anti-dandruff; Anti-dandruff 2 In 1 Shampoo & Conditioner; Anti-dandruff Shampoo; Anti-dandruff Shampoo Classic Clean; Anti-dandruff Shampoo and Conditioner Howl; AntiDandruffShampoo; Antidandruff; Apex Crown Anti Dandruff; Art of Sport Anti Dandruff Compete; Art of Sport Anti Dandruff Victory; As I Am Dry and Itchy Scalp Care; As I Am Dry and Itchy Scalp Care Co Wash; As I Am Dry and Itchy Scalp Care Conditioner; Assured; At One With Nature Dry and Itchy Scalp; Australian Gold Defense Zone Anti-Dandruff Step 2; Australian Gold Defense Zone Anti-dandruff Leave-in Treatment; Australian Gold Metro 365 Medicated 2 in 1 Anti-Dandruff; Australian Gold Metro 365 Medicated Leave-In Treatment Step 3; Aveda Scalp Remedy Anti-dandruff Styling Tonic; Aveeno Active Naturals Nourish Plus Dandruff Control Anti Dandruff; Aveeno Active Naturals Nourish Plus Dandruff Control Anti Dandruff 2 in 1 Shampoo and Conditioner; Aveeno Active Naturals Nourish Plus Dandruff Control Anti Dandruff Conditioner; Avon Advance Techniques Anti-dandruff Shampoo; Avon Techniques Anti-dandruff Shampoo Plus Conditioner; Axe 2 in 1 Armor AntiDandruff 2 in 1; Axe AntiDandruff Styling; Axe Armor AntiDandruff 2 in 1; Axe Feeze AntiDandruff; Axe Freeze AntiDandruff; Axe Freeze Itch Relief 2-IN-1 Cooling Anti-dandruff; Axe Shampoo Armour Anti-dandruff; Axe Shampoo Signature Daily Dandruff Defense Anti-dandruff; Axe Signature Daily Dandruff Defense Anti-Dandruff; BEING WELL BODY 2in1 Dandruff and Conditioner; BEING WELL BODY Dry Scalp Care; Bain De Terre Alpine Mist Dandruff Shp-1%; Bain Exfoliant Hydratant; Balancing; Ballvic Sebo; Balmers Cooling Zone 31; Basic Essentials Dandruff (clean and Conditioner) 2 In 1 Everyday Clean; Basic Essentials Dandruff Dry Scalp; Basic Essentials Dandruff Everyday Clean; Biokera; Biolage Scalptherapie Antidandruff Shampoo; Biolage Scalptherapie Antidandruff Treatment; Biolage Scalpthérapie Antidandruff Conditioner; Biotin H3 2in1 Dandruff Curly Hair; Biotin H3 Anti-Dandruff Curly Hair; Biotin H3 Anti-Dandruff Normal; Biotin H3 Anti-Dandruff Straight; Bioxsine Series; Blade Howl Anti-dandruff; Blue Cap; Blue Cap Cream; Bonnoir Hair Medi; Bonogen Plus hair care shampoo; Bonogen hair care shampoo; Born Hair; Botaneth Pronoxin Hair Regainer; Brylcreem Anti-dandruff; Careline Anti-Dandruff; Carione Rg; Cellcurin Hair ReGen; Cellcurin Hair ReGen Sham poo; Certified Hair Care Dandruff Shampoo - All Hair Types; Chevance; Chill Blast; Classic Clean 2 In 1 for Normal Hair; Classic Control Antidandruff; Clean Apple; Clean Scalp Shampooing; Cleansing Nettoyant Dandruff Pyrithione Zinc Shampoo; Clear 2 in 1 Scalp Comfort AntiDandruff; Clear Complete Care AntiDandruff; Clear Complete Care Nourishing AntiDandruff; Clear Complete Scalp Care AntiDandruff Conditioner; Clear Complete Scalp Care Antidandruff; Clear Men 2 in 1 Clean and Refresh AntiDandruff; Clear Men 2 in 1 Complete Care AntiDandruff; Clear Men 2 in 1 Dry Scalp Hydration AntiDandruff; Clear Men Citrus Fresh Hydration AntiDandruff; Clear Men Clean and Refresh AntiDandruff; Clear Men Cool Sport Mint AntiDandruff; Clear Men Deep Clean Hydration AntiDandruff; Clear Men Ocean Mineral AntiDandruff; Clear Men Scalp & Hair Anti-dandruff; Clear Men Scalp Therapy 2 In 1 Clean & Refresh Anti-dandruff; Clear Men Scalp Therapy 2 In 1 Complete Care Anti-dandruff; Clear Men Scalp Therapy 2 In 1 Dry Scalp Hydration Anti-dandruff; Clear Men Scalp Therapy 2 In 1 Scalp Comfort Anti-dandruff; Clear Men Scalp Therapy Clean & Refresh Anti-dandruff; Clear Men Scalp Therapy Cool Sport Mint Anti-dandruff; Clear Men Scalp Therapy Strong & Full Anti-dandruff; Clear Men Strong and Full AntiDandruff; Clear Scalp & Hair Therapy Complete Care Anti-dandruff; Clinical Solutions Daily Scalp Treatment; Clinical Solutions Leave-ON Dandruff Treatment; Control Anti-Dandruff; Control Dandruff Therapy; Crawford Dandruff; Cremo Anti-Dandruff Fresh blend; Cvs Pharmacy Dandruff; Cyzone Be Sexy; Cyzone Be Sexy BS Tech Zinc Pyrithione And Silicones; Cyzone Trax Coolture Dermo Cool; D-COL Personal Hygiene Convenience kit; Damoae Therapy; Dan Con Pert Plus Extra Body Fine Oily Hair; Dan-gard; Dandrene; Dandruff; Dandruff 2 In 1 Shampoo and Conditioner; Dandruff 2 In 1 Shampoo and Conditioner Clean Apple; Dandruff 2 In 1 Shampoo and Conditioner Daily Clean for Normal Hair; Dandruff 2 In 1 Shampoo and Conditioner Dry Scalp Recovery; Dandruff 2 In 1 Shampoo and Conditioner Itchy Scalp; Dandruff 2 In 1 Shampoo and Conditioner Shiny Smooth; Dandruff 2 in 1; Dandruff Conditioner; Dandruff Conditioner Daily Clean for Normal Hair; Dandruff Conditioner Dry Scalp Recovery; Dandruff Conditioner Pyrithione Zinc Cream; Dandruff Control / Anti-dandruff Shampoo; Dandruff Control Crm Rinse Conditioner 1%; Dandruff Control Pert Plusnormal Or Dry Hair; Dandruff Control Shampoo; Dandruff Control Shampoo 2%; Dandruff Daily Care; Dandruff Relief Shampoo; Dandruff Remedy Shp Liq 1.45%; Dandruff Shampoo; Dandruff Shampoo (classic Or Fresh Or Smooth & Silky 2 In 1); Dandruff Shampoo (classic Or Fresh/cool & Fresh Or Silky Shine 2 In 1); Dandruff Shampoo (dry Scalp Or Classic 2 In 1); Dandruff Shampoo Classic Clean; Dandruff Shampoo Daily Clean for Normal Hair; Dandruff Shampoo Dry Scalp Recovery; Dandruff Shampoo Plus Conditioner; Dandruff Shampoo Scalp Treatment; Dandruff Shampoo and Conditioner Classic Clean 2 In 1; Dandruff Shampoo and Conditioner With Cucumber and Lemongrass Extracts; Dandruff Shampoo for Dry Scalp Care; Dandruff Shampoo for Normal/oily Hair; Dandruff Treatment Cond. Shp 1%; Dandruff Treatment Shampoo - Dry Scalp; Dandruff Treatment Shampoo Reg 1%; Daylogic 2 in 1 Dandruff Classic Scent; Daylogic 2in1 Dandruff Classic Clean; Daylogic 2in1 Dandruff Dry Scalp Care; Daylogic Dandruff Classic Clean; Daylogic Dry Scalp Dandruff; Daylogic Refresh Dandruff; Denorex Everyday Strength; Derma Doctor Born to be Mild Cleanser; Derma Doctor Calm Cool and Corrected; Dermaharmony Bar Peppermint; Dermaharmony Seborrheic Dermatitis; Dermazinc Cream; Dermazinc Shampoo; Dermazinc Spray; Design Essentials Peppermint - Aloe Therapeutics; Dg Body 2 In 1 Classic; Dg Body 2 In 1 Dry Scalp Care; Dg Body 2 In 1 Green Apple; Dg Body 2 In 1 Simply Clean; Dg Body Simply Clean; Dhs Zinc; Dhs Zinc Dandruff Shp; Dial For Men Dandruff Control Hair and Body Wash; Doll Lash; Dong Sung Anti-Hair Loss; Dong Sung Monelyn; Doo Gro Anti-Dandruff Vitalizer; Dove; Dove Derma Plus Care Scalp Anti-dandruff Aloe & Restore; Dove Derma Plus Care Scalp Anti-dandruff Invigorating Mint; Dove Derma Plus Care Scalp Anti-dandruff Invigorating Mint 2 In 1; Dove Derma+care Scalp Anti-dandruff Dryness & Itch Relief; Dove Derma+care Scalp Anti-dandruff Fresh & Clean; Dove Derma+care Scalp Anti-dandruff Fresh & Clean 2 In 1; Dove Derma+care Scalp Anti-dandruff Smoothing Moisture; Dove Dermacare Scalp Coconut Hydration Anti-Dandruff; Dove Dermacare Scalp Coconut Hydration Anti-Dandruff Conditioner; Dove Dermacare Scalp Dryness and Itch Relief Anti-Dandruff; Dove Dermacare Scalp Dryness and Itch Relief Anti-Dandruff Conditioner; Dove Dermacare Scalp Invigorating Mint 2 In 1 Anti-Dandruff; Dove Dermacare Scalp Invigorating Mint Anti-Dandruff; Dove Dermacare Scalp Pure Daily Care 2 In 1 Anti-Dandruff; Dove Dermacare Scalp Pure Daily Care Anti-Dandruff; Dove Men Plus Care Anti Dandruff; Dove Men Plus Care Derma Plus Care Scalp Anti-dandruff Deep Clean 2 In 1; Dove Men+care Derma+care Scalp Anti-dandruff Dandruff Defense 2 In 1; Dove Men+care Derma+care Scalp Anti-dandruff Dryness & Itch Relief 2 In 1; Dove Men+care Derma+care Scalp Anti-dandruff Gentle Clean 2 In 1; Dove Men+care Fortifying Shampoo + Conditioner Anti-dandruff 2 In 1; Down Under Natural's Dry Scalp Shampoo Antidandruff; Dr.FORHAIR FOLLIGEN; Dr.ZUMI SCALP; Dry Scalp; Dry Scalp Care; Dry Scalp Care Dandruff MD; Dry Scalp Care Dandruff Shampoo; Dry Scalp Dandruff; Dual Senses Scalp Regulation AntiDandruff Shampoo; DualSenses Scalp Regulation Anti-Dandruff; EASTER SCALP 100mL; ESIKA Men Effective Control; ESIKA Men Multi-Action 2-in-1; ESIKA Vital With Active Z 2-in-1 Dandruff Control; Easter Scalp; Ecologique; Ecosom; Elastine Hair Gain; Elastine Hair Gain Scalp Antiaging Conditioner; Elastine Hair Gain Treatment; Elementz; Enchante Shampooing Antipelliculaire; Epoch Ava Puhi Moni; Epoch Ava Puhi Moni Anti-Dandruff; Equaline Classic Clean; Equaline Classic Clean 2 In 1; Equaline Dandruff Classic Clean; Equaline Dandruff Dry Scalp 2 in 1; Equaline Dandruff Refresh; Equaline Dry Scalp 2 In 1; Equate 2 in 1 Dry Scalp Dandruff; Equate Beauty Color Safe Dandruff; Equate Classic Spice 2 in 1 Dandruff; Equate Dry Scalp 2 in 1 Dandruff; Equate Dry Scalp 2 in 1 Dandruff Anti-Dandruff; Equate Dry Scalp 2 in 1 Dandruff SH and COND Anti-Dandruff; Equate Dry Scalp Dandruff; Equate Everyday Clean; Equate Everyday Clean 2 in 1 Dandruff; Equate Everyday Clean 2 in 1 Dandruff Anti-Dandruff; Equate Everyday Clean 2 in 1 Dandruff SH and COND Anti-Dandruff; Equate Everyday Clean 2in1 Dandruff; Equate Everyday Clean Dandruff Anti-Dandruff; Equate Everyday Clean Gentle Dandruff; Equate Green Apple 2 in 1 Dandruff; Equate Green Apple 2 in 1 Dandruff Anti-Dandruff; Equate beauty Color Safe Dandruff Conditioner; Eron Healing Tonic; Esika Men 2 En 1 Antidandruff Multi-action; Esika Men Dandruff Maximum Strength; Esika Men Maximum Strength; Essaim Dandruff Shampoo; Everday Clean Dandruff; Every Man Jack 2-IN-1 Anti-dandruff; Everyday Clean; Everyday Clean 2 In 1 Dandruff Shampoo Plus Conditioner; Everyday Clean 2 in 1; Everyday Clean Dandruff; Everyday Clean Dandruff Shampoo; FOLLIGEN hgH RENOVATING; Folligen; Folligen Plus; For Dry Scalp Pour Cuir Chevelu Sec Shampoo Plus Conditioner Anti-dandruff; Four Season; Free and Clear; Fresh Mint Dandruff; Fructis Anti-dandruff Shampoo Clean & Fresh; Fructis Anti-dandruff Shampoo Clean & Fresh 2 In 1; Fructis Anti-dandruff Shampoo Dry Scalp; Fructis Anti-dandruff Shampoo Intense Cleanse Scrub; Fructis Anti-dandruff Shampoo Mint Cleanse; Fructis Shampooing Antipelliculaire; Fructis Shampooing Antipelliculaire 2 En 1; Fruitopia; GKhair Anti-Dandruff; Garnier Fructis Antidandruff; Garnier Fructis Antidandruff Clean and Fresh; Garnier Fructis Antidandruff Clean and Fresh 2 in 1; Garnier Fructis Antidandruff Dry Scalp; Garnier Fructis Antidandruff Intense Cleanse; Garnier Fructis Antidandruff Mint Cleanse; Gentle Therapy; Gillette Anti-dandruff Shampoo; Goldwell Scalp Regulation Anti-Dandruff; Green Apple Pomme Verte Dandruff Pyrithione Zinc Shampoo; Green Apple Pomme Verte Dandruff Pyrithione Zinc Shampoo & Conditioner; Hair; Hair and Scalp Lotion 1%; Hair and Scalp anti-dandruff; HairQ; Hairfitness Anti-dandruff Shampoo; Hairjoy; Hairjoy Msm Hair; Halsa Pyrithione Zinc Dandruff; Halsa Pyrithione Zinc Dandruff - Dry Scalp Care; Halsa anti Dandruff moisturizes and restores; Happy Cappy; Head & Shoulders Active Sport 2 In 1 Men; Head & Shoulders Active Sport Men; Head & Shoulders Citrus Breeze; Head & Shoulders Citrus Breeze 2 In 1; Head & Shoulders Classic Clean; Head & Shoulders Classic Clean 2 In 1; Head & Shoulders Damage Repair 2 In 1; Head & Shoulders Damage Rescue; Head & Shoulders Damage Rescue 2 Minute Repair Dry Scalp & Hair Treatment; Head & Shoulders Damage Rescue 2in1; Head & Shoulders Dandruff Conditioner; Head & Shoulders Dandruff Shampoo; Head & Shoulders Deep Clean 2 In 1 Men; Head & Shoulders Deep Clean Men; Head & Shoulders Dry Scalp Care; Head & Shoulders Dry Scalp Care 2 Minute Moisturizer Scalp & Hair Treatment; Head & Shoulders Dry Scalp Care 2in1; Head & Shoulders Extra Strength; Head & Shoulders Extra Strength Men; Head & Shoulders Extra Volume; Head & Shoulders Extra Volume 2in1; Head & Shoulders Full & Strong; Head & Shoulders Full & Strong 2 In 1; Head & Shoulders Full & Strong 2 Minute Strengthener Scalp & Hair Treatment; Head & Shoulders Full & Strong Conditioner; Head & Shoulders Full & Thick 2in1 Men; Head & Shoulders Full & Thick Men; Head & Shoulders Green Apple; Head & Shoulders Green Apple 2in1; Head & Shoulders Instant Cooling Relief; Head & Shoulders Instant Cooling Relief 2in1; Head & Shoulders Instant Cooling Relief Conditioner; Head & Shoulders Instant Fresh; Head & Shoulders Instant Fresh 2in1; Head & Shoulders Instant Hydration; Head & Shoulders Instant Hydration 2in1; Head & Shoulders Instant Hydration 5 Day Moisture Infusion Treatment; Head & Shoulders Instant Hydration Conditioner; Head & Shoulders Instant Oil Control; Head & Shoulders Instant Oil Control 2in1; Head & Shoulders Intensive Solutions; Head & Shoulders Itchy Scalp Care; Head & Shoulders Itchy Scalp Care 2 In 1; Head & Shoulders Moisture Care; Head & Shoulders Moisture Care 2in1; Head & Shoulders Moisture Care Cowash; Head & Shoulders Moisture Care Recovery Treatment; Head & Shoulders Nourishing Hair & Scalp Care Conditioner; Head & Shoulders Ocean Fresh; Head & Shoulders Ocean Lift; Head & Shoulders Ocean Lift 2 In 1; Head & Shoulders Purely Gentle Scalp Care; Head & Shoulders Purely Gentle Scalp Care 2in1; Head & Shoulders Pyrithione Zinc Dandruff Conditioner Classic Clean; Head & Shoulders Pyrithione Zinc Dandruff Conditioner Deep Moisture; Head & Shoulders Pyrithione Zinc Dandruff Conditioner Dry Scalp Care; Head & Shoulders Pyrithione Zinc Dandruff Conditioner Green Apple; Head & Shoulders Pyrithione Zinc Dandruff Conditioner Itchy Scalp Care; Head & Shoulders Pyrithione Zinc Dandruff Conditioner Smooth & Silky; Head & Shoulders Pyrithione Zinc Dandruff Conditioner Volume Boost; Head & Shoulders Pyrithione Zinc Dandruff Shampoo 2in1 Deep Moisture; Head & Shoulders Pyrithione Zinc Dandruff Shampoo 2in1 Invigorating Scalp Care; Head & Shoulders Pyrithione Zinc Dandruff Shampoo 2in1 Men Old Spice Pure Sport; Head & Shoulders Pyrithione Zinc Dandruff Shampoo 2in1 Men Old Spice Swagger; Head & Shoulders Pyrithione Zinc Dandruff Shampoo 2in1 Tea Tree; Head & Shoulders Pyrithione Zinc Dandruff Shampoo 2in1 Volume Boost; Head & Shoulders Pyrithione Zinc Dandruff Shampoo Deep Moisture; Head & Shoulders Pyrithione Zinc Dandruff Shampoo Invigorating Scalp Care; Head & Shoulders Pyrithione Zinc Dandruff Shampoo Men Old Spice Pure Sport; Head & Shoulders Pyrithione Zinc Dandruff Shampoo Men Old Spice Swagger; Head & Shoulders Pyrithione Zinc Dandruff Shampoo Tea Tree; Head & Shoulders Pyrithione Zinc Dandruff Shampoo Volume Boost; Head & Shoulders Refresh 2 In 1 Men; Head & Shoulders Refresh Men; Head & Shoulders Shp Crm 2%; Head & Shoulders Smooth & Silky; Head & Shoulders Smooth & Silky 2 In 1; Head & Shoulders Total Care 2in1; Head & Shoulders Total Care All-IN-1 Men; Head And Shoulders 2 in 1 Smooth and silky; Head Remedy; Head Remedy Dandruff; Head Remedy Dandruff Conditioner; Head and Shoulder Men Old Spice; Head and Shoulders; Head and Shoulders 2 In 1 Instant Moisturization; Head and Shoulders 2 In Renewing Cleanse; Head and Shoulders 2 In Soft and Manageable; Head and Shoulders 2in1 Citrus Breeze; Head and Shoulders 2in1 Classic Clean; Head and Shoulders 2in1 Dry Scalp Care; Head and Shoulders 2in1 Green Apple; Head and Shoulders 2in1 Hair Endurance for Men; Head and Shoulders 2in1 Instant Oil Control; Head and Shoulders 2in1 Instant Relief; Head and Shoulders 2in1 Itchy Scalp Care; Head and Shoulders 2in1 MEN Advanced Series Fiji Old Spice; Head and Shoulders 2in1 Men Advanced Series Charcoal; Head and Shoulders 2in1 Men Advanced Series Deep Sea Minerals; Head and Shoulders 2in1 Men Advanced Series Full and Thick; Head and Shoulders 2in1 Men Advanced Series Pure Sport Old Spice; Head and Shoulders 2in1 Men Advanced Series Swagger Old Spice; Head and Shoulders 2in1 Men with Old Spice; Head and Shoulders 2in1 Moisture Care; Head and Shoulders 2in1 Ocean Lift; Head and Shoulders 2in1 Purely Gentle Scalp Care; Head and Shoulders 2in1 Refresh; Head and Shoulders 2in1 Refresh Men; Head and Shoulders 2in1 Restoring Shine; Head and Shoulders 2in1 Sensitive Care; Head and Shoulders 2in1 Smooth and Silky; Head and Shoulders 2in1 Tea Tree; Head and Shoulders 2in1 Tea Tree plus Peppermint; Head and Shoulders 3 In 1 Men; Head and Shoulders Active Sport; Head and Shoulders Active Sport 2in1; Head and Shoulders Aloe Vera 2in1; Head and Shoulders Aloe Vera Daily; Head and Shoulders Apple Fresh; Head and Shoulders Breakege Prevention; Head and Shoulders Calming Lavender Daily; Head and Shoulders Calming Lavender Daily Hair and Scalp Conditioner; Head and Shoulders Charcoal Daily; Head and Shoulders Citrus Breeze; Head and Shoulders Citrus Fresh 2in1; Head and Shoulders Citrus Fresh Daily; Head and Shoulders Classic Clean; Head and Shoulders Classic Clean Dandruff; Head and Shoulders Clinical Solutions Leave-On Dandruff Treatment; Head and Shoulders Coconut 2in1; Head and Shoulders Coconut Daily; Head and Shoulders Coconut Daily Hair and Scalp Conditioner; Head and Shoulders Complete Scalp Care 2in1; Head and Shoulders Conditioner Classic Clean; Head and Shoulders Conditioner Damage Rescue; Head and Shoulders Conditioner Dry Scalp; Head and Shoulders Conditioner Full and Strong; Head and Shoulders Conditioner Green Apple; Head and Shoulders Conditioner Instant Hydration; Head and Shoulders Conditioner Instant Relief; Head and Shoulders Conditioner Itchy Scalp; Head and Shoulders Conditioner Ocean Lift; Head and Shoulders Conditioner Restoring Shine; Head and Shoulders Conditioner Smooth and Silky; Head and Shoulders Damage Rescue; Head and Shoulders Damage Rescue 2in1; Head and Shoulders Dandruff Moisturizing Action; Head and Shoulders Deep Moisture; Head and Shoulders Deep Moisture 2in1; Head and Shoulders Deep Moisture Hair and Scalp Conditioner; Head and Shoulders Deep Moisture Scalp and Hair Mask; Head and Shoulders Detox and Refresh; Head and Shoulders Detox and Refresh 2in1; Head and Shoulders Dry Scalp; Head and Shoulders Dry Scalp Care; Head and Shoulders Dry Scalp Care 2in1; Head and Shoulders Dry Scalp Care Hair and Scalp Conditioner; Head and Shoulders Dual Pack Smooth and Silky; Head and Shoulders Dual Sachets Classic Clean; Head and Shoulders Dual Sachets Full and Strong; Head and Shoulders Dual Sachets Green Apple; Head and Shoulders Dual Sachets Instant Relief; Head and Shoulders Dual Sachets Smooth and Silky; Head and Shoulders Extra Strength; Head and Shoulders Extra Strength Men; Head and Shoulders Extra Volume; Head and Shoulders Extra Volume 2in1; Head and Shoulders Full and Strong; Head and Shoulders Full and Strong 2in1; Head and Shoulders Green Apple; Head and Shoulders Green Apple 2in1; Head and Shoulders Hair Endurance For Men; Head and Shoulders Hair and Scalp Conditioner Classic Clean; Head and Shoulders Hair and Scalp Conditioner Green Apple; Head and Shoulders Hair and Scalp Conditioner Instant Relief; Head and Shoulders Headstrong Daily Dandruff; Head and Shoulders Headstrong Daily Dandruff 2in1; Head and Shoulders Headstrong Daily Dandruff 2in1 Vintage; Head and Shoulders Instant Fresh; Head and Shoulders Instant Fresh 2in1; Head and Shoulders Instant Hydration; Head and Shoulders Instant Hydration 2 in 1; Head and Shoulders Instant Hydration Hair and Scalp Conditioner; Head and Shoulders Instant Oil Control; Head and Shoulders Instant Oil Control Conditioner; Head and Shoulders Instant Relief; Head and Shoulders Itchy Scalp; Head and Shoulders Itchy Scalp 2in1; Head and Shoulders Itchy Scalp Care; Head and Shoulders Itchy Scalp Care Hair and Scalp Conditioner; Head and Shoulders MEN Advanced Series Bourbon 2in1; Head and Shoulders MEN Advanced Series Sage and Mint 2in1; Head and Shoulders MEN Advanced Series Sandalwood; Head and Shoulders MEN Advanced Series Sandalwood 2in1; Head and Shoulders MEN Old Spice Pure Sport; Head and Shoulders Men 2in1 Old Spice Fiji; Head and Shoulders Men 2in1 Old Spice Pure Sport; Head and Shoulders Men Active Sport; Head and Shoulders Men Active Sport 2in1; Head and Shoulders Men Advanced Series Charcoal; Head and Shoulders Men Advanced Series Full and Thick; Head and Shoulders Men Advanced Series Refreshing 2in1 Menthol; Head and Shoulders Men Advanced Series Refreshing Menthol; Head and Shoulders Men Advanced Series Swagger Old Spice; Head and Shoulders Men Deep Clean; Head and Shoulders Men Deep Clean 2in1; Head and Shoulders Men Full and Thick; Head and Shoulders Men Full and Thick 2in1; Head and Shoulders Men Old Spice; Head and Shoulders Men Refresh; Head and Shoulders Men Refresh 2in1; Head and Shoulders Men Total Care All in 1; Head and Shoulders Moisture Care; Head and Shoulders Moisture Care Cowash; Head and Shoulders Molding Clay; Head and Shoulders Nourishing Hair and Scalp Care; Head and Shoulders Nourishing Hair and Scalp Care 2in1; Head and Shoulders Nourishing Hair and Scalp Care Conditioner; Head and Shoulders Ocean Lift; Head and Shoulders Ocean Lift 2in1; Head and Shoulders Old Spice; Head and Shoulders Old Spice Swagger; Head and Shoulders Old Spice Swagger 2in1; Head and Shoulders Purely Gentle 2in1; Head and Shoulders Purely Gentle Daily; Head and Shoulders Purely Gentle Scalp Care; Head and Shoulders Purely Gentle Scalp Care 2in1; Head and Shoulders Refresh; Head and Shoulders Refresh Men; Head and Shoulders Refreshing Relief; Head and Shoulders Renewing Cleanse; Head and Shoulders Repair and Protect; Head and Shoulders Repair and Protect 2in1; Head and Shoulders Repair and Protect Hair and Scalp Conditioner; Head and Shoulders Restoring Shine; Head and Shoulders Root Rejuvenating Pre-Wash Mask; Head and Shoulders Royal Oils Daily Moisture Scalp; Head and Shoulders Royal Oils Deep Moisture Masque; Head and Shoulders Royal Oils Instant Soothe Scalp; Head and Shoulders Royal Oils Moisture Boost; Head and Shoulders Royal Oils Moisture Renewal Conditioner; Head and Shoulders Royal Oils Moisturizing Co-Wash; Head and Shoulders Royal Oils Seal and Prep Moisture Milk; Head and Shoulders Scalp Detoxifying Pre-Wash Mask; Head and Shoulders Sensitive Care; Head and Shoulders Sensitive Scalp Care; Head and Shoulders Sensitive Scalp Care 2in1; Head and Shoulders Smooth and Silky; Head and Shoulders Smooth and Silky 2in1; Head and Shoulders Styling; Head and Shoulders Styling Gel; Head and Shoulders Styling Pomade; Head and Shoulders Supreme Color Protect; Head and Shoulders Supreme Color Protect Conditioner; Head and Shoulders Supreme Detox and Hydrate; Head and Shoulders Supreme Detox and Hydrate Conditioner; Head and Shoulders Supreme Detoxifying Pre-Wash Mask; Head and Shoulders Supreme Hydrating Scalp Serum; Head and Shoulders Supreme Nourish and Smooth; Head and Shoulders Supreme Nourish and Smooth Conditioner; Head and Shoulders Supreme Nourishing Scalp and Hair Mask; Head and Shoulders Supreme Rejuvenating Pre-Wash Mask; Head and Shoulders Supreme Soothe and Strengthen; Head and Shoulders Supreme Soothe and Strengthen Conditioner; Head and Shoulders Supreme Soothing Leave On Scalp; Head and Shoulders Supreme Thickening Hair Mist; Head and Shoulders Tea Tree; Head and Shoulders Tea Tree 2in1; Head and Shoulders Tea Tree Oil 2in1; Head and Shoulders Tea Tree Oil Daily; Head and Shoulders Texturizing Putty; Head and Shoulders Treatment Damage Rescue 2 Minute Repair; Head and Shoulders Treatment Dry Scalp Care 2 Minute Moisturizer; Head and Shoulders Treatment Full and Strong 2 Minute Strengthener; Head and Shoulders Volume Boost; Head and Shoulders Volume Boost 2in1; Head and Shoulders White Charcoal Daily Hair and Scalp Conditioner; Head and Shoulders breakage prevention; Head and Shoulders hair loss prevention; Head and Shoulders menthol fresh; Head and Shoulders renewing clean; Head and Shoulders smooth and silky; Head and ShouldersVolume Boost Hair and Scalp Conditioner; Heads & Shoulders Damage Repair; Heads & Shoulders Ocean Fresh 2 In 1; Heb Dandruff; Herbal Essences, No Flakin Way Antidandruff Shampoo; Herbal Shampoo and Scalp Treatment for Dandruff Control; Herbaliste; Hyvee Care Classic Clean 2 in 1 Dandruff; Hyvee Care Classic Clean Dandruff; Hyvee Care Dry Scalp Dandruff; InnerEffect Regulate Anti-Dandruff; Intense Clear; Intense Clear Pure; Itchy Scalp; J1002901Jason Dandruff Relief 2in1Treatment; J1002902 Jason Dandruff Relief 2in1 Treatment; Jason Dandruff Relief Treatment 2 in 1; Jean Murrat Shampooing Anti-pelliculaire; Jhirmack Distinctions Silver Plus Dandruff; Just For Men Control GX Anti-Dandruff; KMS California Head Remedy Dandruff; Keep Clear Antidandruff Shp 1%; Kenra Dandruff Shampoo; KeraCare Dry and Itchy Scalp Anti-Dandruff; Kerastase Specifique Bain Exfoliant Hydratant; Kiehls Since 1851 Scalp Purifying Dandruff; Kms California Head Remedy Dandruff Shampoo; Kms Daily Fixx Dandruff Shampoo; L OCCITANE Anti-Dandruff Sensitive Scalp; LEudine Anti-dandruff; LOreal Paris Hair Expert Ever Fresh Sulfate Free Antidandruff; LOreal Paris Men Expert Antidandruff Conditioner and; LOreal Professionnel Paris Instant Clear Antidandruff; Lancell Huitomo Hair Loss Prevention Hair Grower Clean Formula; Lancell hair loss prevention hair grower clean formula; Lbel Homme Antidandruff; Leader Dandruff Everyday Clean Anti-Dandruff; Life -shampooing Et Revitalisant Antipelliculaire Classique - 2 En 1; Life Brand Itchy Dry Scalp Anti-dandruff Shampoo; Life Combat Anti-dandruff; Life Dandruff Shampoo; Lucky 2in1 Classic; Lucky Classic; Lucky Dry Hair; MD CELL Scalp; MOJELIM Dr; Mane n Tail Daily Control 2 in 1 Anti Dandruff Shampoo Conditioner; Mane n Tail Daily Control Anti-Dandruff; Matrix Biolage ScalpSync Antidandruff; Matrix Essentials Actrol Dandruff Shampoo; Medaclear; Medecean Seborrhea; Melaleuca Shampooing Antipelliculaire Pellicules Grasses, Cuir Chevelu Gras-rene Furterer; Members Mark Gentle Dandruff; Men Advanced Series Charcoal; Men Advanced Series Deep Sea Minerals; Men Advanced Series Full & Thick; Men Advanced Series Pure Sport; Men Advanced Series Refreshing Menthol; Men Advanced Series Swagger; Men Expert Anti-dandruff 2 In 1; Mizani Scalp Care Antidandruff; Mizani Scalp Care Conditioner Antidandruff Conditioner; Mo-Tech; Mo-tech; Modesa 2 In 1 Dandruff; Modesa 2 in 1 Dandruff Almond Oil Dry Scalp; Modesa 2 in 1 Dandruff Green Apple; Modesa Dandruff Everyday Clean; Mqdesa 2 In 1 Dandruff; My Black is Beautiful Scalp Care Calming Scalp and Hair; My Black is Beautiful Scalp Care Cooling Scalp Serum; Natural 17 Anti-Dandruff; Naturaltech Purifying Anti-dandruff; Ndm Scalp; Neutrogena Daily Control TGel 2 in 1 Dandruff Plus Conditioner; Neutrogena T/Gel Therapeutic; Neutrogena Tgel Daily Control 2 in 1; Nioxin Scalp Optimizing Cleanser Advanced Thinning; Nioxin Scalp Optimizing Conditioner Advanced Thinning; Nioxin Scalp Recovery Medicating Cleanser; Nioxin Scalp Recovery Moisturizing Condtioner; Nioxin Scalp Recovery Soothing Serum; No More Dandruff Hair and Scalp Conditioner; No More Dandruff Shampoo; Normal Dandruff Treatment Shampoo; Nourishing Care; Nourishing Care 2in1; Nourishing Care Conditioner; OREAD BLUE Anti-Dandruff; Ocean Breeze 2 In 1 Dandruff Sea Mineral Scent; Oily Hair Dandruff Zerran International; Old Spice Pure Sport Plus 2in1 Anti-dandruff; Old Spice Steel Courage 2in1 Anti Dandruff; Old Spice Stronger Swagger 2in1 Anti Dandruff; Original / Originale Dandruff Pyrithione Zinc Shampoo & Conditioner; Osmose - Shampooing Anti-pelliculaire; Out Of Africa 2 Minute Botanical Shampoo 1%; Out Of Africa Conditioner; Out Of Africa Dry Conditioner; Out Of Africa Dry Shampoo; Out Of Africa Regular Conditioner; Out Of Africa Regular Shampoo; P.O.V. 2 in 1 Dry Scalp Dandruff; P.O.V. Classic 2 in 1 Dandruff; P.O.V. Classic Dandruff; P.O.V. Dry Scalp Dandruff; P.O.V. Green Apple 2 in 1 Dandruff; P.O.V. Timeless Spice 2 in 1 Dandruff; PCA Skin Intensive Pigment Eraser; Panrosa FRESH CLEAN Pyrithione Zinc Dandruff; Pantene Anti-dandruff Shampoo; Pantene Pro-V Anti-dandruff; Pantene Pro-V Anti-dandruff 2in1; Pantene Pro-V Hydra Scalp Care; Pantene Pro-V Hydra Scalp Care 2in1; Pantene Pro-V Hydra Scalp Care Conditioner; Pantene Pro-V Hydra Scalp Care Pyrithione Zinc Dandruff Conditioner; Pantene Pro-V Hydra Scalp Care Pyrithione Zinc Dandruff Shampoo; Pantene Pro-V Hydra Scalp Care Pyrithione Zinc Dandruff Shampoo 2in1; Pepplus Special Care; Personal CARE Daily Clean; Personal CARE Dry Scalp; Personal Care Pyrithione Zinc Dandruff; Pert Anti-dandruff; Pert Plus 2 in 1 Anti-Dandruff; Pert Plus 2 in 1 Shampoo and Conditioner Anti-Dandruff; Pert Plus 2 in 1 Shampoo and Conditioner Dry Scalp Care; Pert Plus Dandruff Control; Pert Plus Dandruff Control Dandruff Shampoo; Pert Plus Dandruff Control for N. Or D. Hair; Pert Plus Dandruff Dismissed; Pert Plus Dandruff Plus; Pert Plus Dry Scalp Care; Pert Plus for Men Daily Dandruff; Positively Nourishing Dandruff Control 2-IN-1 Shampoo & Conditioner; Positively Nourishing Dandruff Control Conditioner; Positively Nourishing Dandruff Control Shampoo; Power Clear; PrimaDerm Anti-dandruff; Proactiv Herbal Conditioning Treatment; Proactiv Soothing Scalp Treatment Antidandruff; Purete; Pyrithione Zinc; Pyrithione Zinc 1 % Dandruff Shampoo; Pyrithione Zinc Dandruff Conditioner Suprême Nourish; Pyrithione Zinc Dandruff Conditioner Suprême Purify & Hydrate; Pyrithione Zinc Dandruff Conditioner Suprême Strengthen; Pyrithione Zinc Dandruff Shampoo Citrus; Pyrithione Zinc Dandruff Shampoo Classic Clean; Pyrithione Zinc Dandruff Shampoo Refresh; Pyrithione Zinc Dandruff Shampoo Scalp Care; Pyrithione Zinc Dandruff Shampoo Suprême Nourish; Pyrithione Zinc Dandruff Shampoo Suprême Purify & Hydrate; Pyrithione Zinc Dandruff Shampoo Suprême Strengthen; Pyrithione Zinc Dandruff Shampoo and Conditioner Classic Clean 2 In 1; REVAGAIN Hair and Scalp revitalizing; ReEn Hairloss Clinic Jahajin Shampoo for Sensitive Scalp; ReEn Mogangbichaek Conditioner; ReEn Mogangbichaek for Sensitive Scalp; Rebirth Hair; Redken 5th Avenue NYC Scalp Relief Dandruff Control; Redken Brews NYC Grooming Pyrithione Zinc Anti-dandruff; Redken Solve Acid Balance Shp; Retaliate; Revox; Rite Aid Dandruff 2 in 1 Classic Clean; Rite Aid Dandruff 2 in 1 Dry Scalp Care; Rodan & Fields Proactiv Solution: Gentle Formula Antidandruff Shampoo; Royal Dandruff; Royal Dandruff Dry Scalp; Royal dandruff Dry Scalp Care; SATINIQUE ANTI-DANDRUFF for dry, irritated scalp; SHILLS ACNE Purifying Peel Off Black Mask; Safeway Care Dandruff; Safeway Care Normal To Oily Hair; Safeway Dandruff; Safeway Dandruff Classic Clean; Safeway Dandruff Dry Scalp; Safeyway Care Normal To Oily Hair; Satinique Anti Dandruff; Satinique Anti-dandruff Shampoo; Satinique Anti-dandruff Shampoo 1.9%; Satinique Dandruff Control Hair Cleanser; Scalp Purifying Anti-dandruff Shampoo; Scalp Relief; Scalp Relief Dandruff Control (pyrithione Zinc Cream); Scalp Relief Dandruff Control (pyrithione Zinc Shampoo); Scalp Relief Dandruff Control Leave-IN Treatment; Scalp Scaling; Scalpsync Anti-dandruff; Sebastian Purist Antidandruff; Sebulon Shampoo Liq 2%; Selection Dandruff Shampoo 2 In 1; Selection Dandruff Shampoo Dry Hair; Selection Dandruff Shampoo-classic; Selsun Blue Anti-dandruff Shampoo; Selsun Blue Full and Thick; Selsun Blue Itchy Dry Scalp; Selsun Blue Sensitive Scalp; Sereve Professional Scalp; Shampoo Control - 2%; Shampooing 2 En 1 Antipelliculaire; Shampooing Anti-pelliculaire 1%; Shelo NABEL Anti Caspa; Shikatri Class; Shiny and Sleek; Shopko Beauty Classic Spice 2 in 1 Dandruff; Shopko Beauty Everyday Clean Dandruff; Shopko Beauty Green Apple 2 in 1 Dandruff; Short Cuts Anti-dandruff Shampoo; Silver Plus; Simply Clean Dandruff; Skin-cap Shampoo - 1%; Skin-cap Spray-2mg/ml; Smooth and Silky Lisse Et Soyeux Dandruff Pyrithione Zinc Conditioner; Smooth and Silky Lisse Et Soyeux Dandruff Pyrithione Zinc Shampoo; Smooth and glossy; Soft Whisper Dandruff; Soft Whisper by Power Stick Dandruff; Solve Dandruff Shampoo; Soothe and Cool Fresh; Sp System Professional 3.4 Remove Shampeeling; Spai-sons Alkaline Dry-dandruff; Sprayzinc; Suave Invigorating Ocean Minerals and Aloe Vera AntiDandruff; Suave Men 2 in 1 Dandruff; Suave Men 2 in 1 Pure Power Antidandruff; Suave Men Deep Clean Mint Refresh AntiDandruff; Suave Nourishing Coconut and Shea Butter AntiDandruff; Suave Nourishing Coconut and Shea Butter AntiDandruff Conditioner; Suave Professionals Men 2 in 1 Classic Clean AntiDandruff; Suave Professionals Men AntiDandruff; Suave Revitalizing Mint and Eucalyptus AntiDandruff; Suave Revitalizing Mint and Eucalyptus AntiDandruff Conditioner; Sulfur 8 Aqua Blue; Sulfur 8 Five Star Anti-Dandruff Hair Groom; Sulfur 8 Fresh Anti-Dandruff Moisturizing; Sulfur 8 Fresh Anti-Dandruff Oil Moisturizing; Sulfur 8 Kids Anti-Dandruff; Sulfur 8 Light Moisturizer Anti-Dandruff; Sulfur 8 Oil Moisturizer Anti-Dandruff; Sulfur 8 Scalp Therapy Medicated Dandruff Control; Suprême Thickening Hair Mist; System Prof. Epithel Med. Antidandruff Shp; System TLC Anti-dandruff; T/gel Daily Control; T/gel Daily Control 2 In 1; Tea Tree Oil 2in1; Tea Tree Oil Daily Shampoo; Tegrin; The Original Mane n Tail Daily Control 2 in 1 Anti Dandruff; The Original Mane n Tail Daily Control Anti Dandruff; The Original Mane n Tail Daily Control Anti Dandruff Conditioner; Therapeutic; Therapytion Nokmosu Neutral and oily Hair; Therapytion Nokmosu Sensitive and Dry Hair; TopCare 2 in 1 Dandruff Dry Scalp; TopCare 2 in 1 Dandruff Everyday Clean; TopCare 2 in 1 Dandruff Green Apple; TopCare 2 in 1 Dry Scalp Dandruff; TopCare Beauty Pure Sport Dandruff; TopCare Dry Scalp Gentle Dandruff; TopCare Gentle Dandruff Dry Scalp; TopCare Gentle Dandruff Everyday Clean; Topcare 2 in 1 Everyday Clean Dandruff; Topcare Everyday Clean Dandruff; Topcare Gentle Dandruff Fresh Mint; Topcare Gentle Dandruff Green Apple; Treatment; Triseptin; Triseptin Waterless Antiseptic Lotion; Truly Beauty Shampooing Antipelliculaire Classique; Truly Dandruff Shampoo; Ultraplus Cond.shampoo for Dandruff Control; University Medical Pharmaceuticals Cleansing Shampoo; Vanicream Z-Bar; Vegetability Natural; Vitale Sensitive Scalp Daily Scalp Healer; Vive Men -(anti-dandruff); Volumizing Dandruff Tonic Liq 0.15%; WeCare Anti-Dandruff; X-seb Plus Conditioning Shampoo; XtraCare 2 in 1 Hair Cleanse and Condition Coconut Water; XtraCare 2 in 1 Hair Cleanse and Condition Green Apple; XtraCare Anti-Dandruff Conditioner Coconut and Shea Butter; XtraCare Anti-Dandruff Conditioner mint and eucalyptus; XtraCare Anti-Dandruff Hair Cleanse Cocoa and Shea Butter; XtraCare Anti-Dandruff Hair Cleanse Coconut and Shea Butter; XtraCare Anti-Dandruff Hair Cleanse for normal hair; XtraCare Anti-Dandruff Hair Cleanse for sensitive hair; XtraCare Anti-Dandruff Hair Cleanse mint and eucalyptus; Yakkongmo scalp deep cleansingshampoo; Yakkongmo treatment; Z-plus Shampoo; ZNP Bar; Zinc Pyrithione; Zinc Pyrithione Dandruff Shampoo; Zinc Pyrithione Dandruff Shampoo - Cool Sensation; Zinc Pyrithione Dandruff Shampoo-normal/oily Hair; Zinc Therapy; Zinc Zap Cream; Zinc Zap Shampoo; Zinc Zap Spray; Zincon Medicated Dandruff; Znp Bar 2%; Zolidyne; Zp 11 Antidandruff Hairdressing; Zp 11 Antidandruff Shampoo (herbal) 1%; Zp11 Medicated Shampoo(reg.); maxxam dermaCare Pre-Shampoo Scalp Treatment

> <SALTS>
Pyrithione sodium; Pyrithione zinc

$$$$
5318
  -OEChem-10051722103D

 39 41  0     1  0  0  0  0  0999 V2000
   -1.4231   -0.1715    2.5837 Cl  0  0  0  0  0  0  0  0  0  0  0  0
   -2.2210   -4.8512    0.0472 Cl  0  0  0  0  0  0  0  0  0  0  0  0
    7.6111    0.3473   -0.3506 Cl  0  0  0  0  0  0  0  0  0  0  0  0
    0.7799    1.2333   -0.8367 S   0  0  0  0  0  0  0  0  0  0  0  0
   -3.2515    1.7970   -0.5677 N   0  0  0  0  0  0  0  0  0  0  0  0
   -5.0215    2.4180    0.5823 N   0  0  0  0  0  0  0  0  0  0  0  0
   -0.9021    1.0010   -0.2189 C   0  0  1  0  0  0  0  0  0  0  0  0
   -1.8834    1.8074   -1.0903 C   0  0  0  0  0  0  0  0  0  0  0  0
   -1.2377   -0.4746   -0.1187 C   0  0  0  0  0  0  0  0  0  0  0  0
    1.6670    0.3509    0.4833 C   0  0  0  0  0  0  0  0  0  0  0  0
   -1.4827   -1.0653    1.1083 C   0  0  0  0  0  0  0  0  0  0  0  0
   -1.2887   -1.2009   -1.2962 C   0  0  0  0  0  0  0  0  0  0  0  0
    3.1442    0.3496    0.2769 C   0  0  0  0  0  0  0  0  0  0  0  0
   -4.2052    0.8877   -0.8771 C   0  0  0  0  0  0  0  0  0  0  0  0
   -3.7671    2.6961    0.3039 C   0  0  0  0  0  0  0  0  0  0  0  0
   -1.7883   -2.4254    1.1603 C   0  0  0  0  0  0  0  0  0  0  0  0
   -1.5943   -2.5608   -1.2441 C   0  0  0  0  0  0  0  0  0  0  0  0
   -1.8440   -3.1732   -0.0159 C   0  0  0  0  0  0  0  0  0  0  0  0
   -5.3005    1.2915   -0.1503 C   0  0  0  0  0  0  0  0  0  0  0  0
    3.9235    1.3771    0.8081 C   0  0  0  0  0  0  0  0  0  0  0  0
    3.7461   -0.6788   -0.4483 C   0  0  0  0  0  0  0  0  0  0  0  0
    5.3049    1.3764    0.6142 C   0  0  0  0  0  0  0  0  0  0  0  0
    5.1275   -0.6797   -0.6423 C   0  0  0  0  0  0  0  0  0  0  0  0
    5.9070    0.3480   -0.1109 C   0  0  0  0  0  0  0  0  0  0  0  0
   -0.9114    1.4900    0.7581 H   0  0  0  0  0  0  0  0  0  0  0  0
   -1.9396    1.4391   -2.1222 H   0  0  0  0  0  0  0  0  0  0  0  0
   -1.5870    2.8635   -1.1416 H   0  0  0  0  0  0  0  0  0  0  0  0
    1.4308    0.8174    1.4465 H   0  0  0  0  0  0  0  0  0  0  0  0
    1.3309   -0.6889    0.5418 H   0  0  0  0  0  0  0  0  0  0  0  0
   -1.0984   -0.7487   -2.2649 H   0  0  0  0  0  0  0  0  0  0  0  0
   -4.0516    0.0660   -1.5621 H   0  0  0  0  0  0  0  0  0  0  0  0
   -3.2017    3.5254    0.7068 H   0  0  0  0  0  0  0  0  0  0  0  0
   -1.9836   -2.9045    2.1174 H   0  0  0  0  0  0  0  0  0  0  0  0
   -1.6343   -3.1312   -2.1686 H   0  0  0  0  0  0  0  0  0  0  0  0
   -6.2765    0.8295   -0.1195 H   0  0  0  0  0  0  0  0  0  0  0  0
    3.4671    2.1850    1.3740 H   0  0  0  0  0  0  0  0  0  0  0  0
    3.1504   -1.4847   -0.8688 H   0  0  0  0  0  0  0  0  0  0  0  0
    5.8996    2.1838    1.0335 H   0  0  0  0  0  0  0  0  0  0  0  0
    5.5828   -1.4872   -1.2098 H   0  0  0  0  0  0  0  0  0  0  0  0
  1 11  1  0  0  0  0
  2 18  1  0  0  0  0
  3 24  1  0  0  0  0
  4  7  1  0  0  0  0
  4 10  1  0  0  0  0
  5  8  1  0  0  0  0
  5 14  1  0  0  0  0
  5 15  1  0  0  0  0
  6 15  2  0  0  0  0
  6 19  1  0  0  0  0
  7  8  1  0  0  0  0
  7  9  1  0  0  0  0
  7 25  1  0  0  0  0
  8 26  1  0  0  0  0
  8 27  1  0  0  0  0
  9 11  2  0  0  0  0
  9 12  1  0  0  0  0
 10 13  1  0  0  0  0
 10 28  1  0  0  0  0
 10 29  1  0  0  0  0
 11 16  1  0  0  0  0
 12 17  2  0  0  0  0
 12 30  1  0  0  0  0
 13 20  2  0  0  0  0
 13 21  1  0  0  0  0
 14 19  2  0  0  0  0
 14 31  1  0  0  0  0
 15 32  1  0  0  0  0
 16 18  2  0  0  0  0
 16 33  1  0  0  0  0
 17 18  1  0  0  0  0
 17 34  1  0  0  0  0
 19 35  1  0  0  0  0
 20 22  1  0  0  0  0
 20 36  1  0  0  0  0
 21 23  2  0  0  0  0
 21 37  1  0  0  0  0
 22 24  2  0  0  0  0
 22 38  1  0  0  0  0
 23 24  1  0  0  0  0
 23 39  1  0  0  0  0
M  END
> <DATABASE_ID>
DB06820

> <DATABASE_NAME>
drugbank

> <ORIGINAL_SOURCE>
PUBCHEM

> <ORIGINAL_SOURCE_URL>
https://pubchem.ncbi.nlm.nih.gov/rest/pug/compound/inchikey/AFNXATANNDIXLG-UHFFFAOYSA-N/SDF?record_type=3d

> <SMILES>
ClC1=CC=C(CSC(CN2C=CN=C2)C2=C(Cl)C=C(Cl)C=C2)C=C1

> <INCHI_IDENTIFIER>
InChI=1S/C18H15Cl3N2S/c19-14-3-1-13(2-4-14)11-24-18(10-23-8-7-22-12-23)16-6-5-15(20)9-17(16)21/h1-9,12,18H,10-11H2

> <INCHI_KEY>
AFNXATANNDIXLG-UHFFFAOYSA-N

> <FORMULA>
C18H15Cl3N2S

> <MOLECULAR_WEIGHT>
397.74

> <EXACT_MASS>
396.0021528

> <JCHEM_ACCEPTOR_COUNT>
1

> <JCHEM_ATOM_COUNT>
39

> <JCHEM_AVERAGE_POLARIZABILITY>
39.57418905495578

> <JCHEM_BIOAVAILABILITY>
1

> <JCHEM_DONOR_COUNT>
0

> <JCHEM_FORMAL_CHARGE>
0

> <JCHEM_GHOSE_FILTER>
0

> <JCHEM_IUPAC>
1-(2-{[(4-chlorophenyl)methyl]sulfanyl}-2-(2,4-dichlorophenyl)ethyl)-1H-imidazole

> <ALOGPS_LOGP>
5.72

> <JCHEM_LOGP>
6.062066127666665

> <ALOGPS_LOGS>
-5.49

> <JCHEM_MDDR_LIKE_RULE>
1

> <JCHEM_NUMBER_OF_RINGS>
3

> <JCHEM_PHYSIOLOGICAL_CHARGE>
1

> <JCHEM_PKA_STRONGEST_BASIC>
6.778654380309159

> <JCHEM_POLAR_SURFACE_AREA>
17.82

> <JCHEM_REFRACTIVITY>
104.36659999999999

> <JCHEM_ROTATABLE_BOND_COUNT>
6

> <JCHEM_RULE_OF_FIVE>
0

> <ALOGPS_SOLUBILITY>
1.29e-03 g/l

> <JCHEM_TRADITIONAL_IUPAC>
sulconazole

> <JCHEM_VEBER_RULE>
1

$$$$
312145
  -OEChem-05221821173D

 55 59  0     1  0  0  0  0  0999 V2000
   -0.6803   -2.3798    0.0583 O   0  0  0  0  0  0  0  0  0  0  0  0
    3.4830   -0.9945    0.8000 O   0  0  0  0  0  0  0  0  0  0  0  0
    2.2883    3.1995   -0.4403 O   0  0  0  0  0  0  0  0  0  0  0  0
   -5.5370   -0.1386   -0.1307 O   0  0  0  0  0  0  0  0  0  0  0  0
   -0.5376    3.4454   -0.9513 O   0  0  0  0  0  0  0  0  0  0  0  0
    2.9992   -2.4799   -1.4412 O   0  0  0  0  0  0  0  0  0  0  0  0
    5.3452    0.3379    0.7992 O   0  0  0  0  0  0  0  0  0  0  0  0
   -2.0875   -3.7619    1.2611 O   0  0  0  0  0  0  0  0  0  0  0  0
   -3.1967    0.3305    0.3340 C   0  0  2  0  0  0  0  0  0  0  0  0
   -2.3327    1.1616   -0.6447 C   0  0  2  0  0  0  0  0  0  0  0  0
   -0.3278    0.0356    0.3318 C   0  0  0  0  0  0  0  0  0  0  0  0
   -2.7003   -1.1022    0.2418 C   0  0  0  0  0  0  0  0  0  0  0  0
    1.1475   -0.0331    0.8545 C   0  0  2  0  0  0  0  0  0  0  0  0
   -0.8783    1.1606   -0.2339 C   0  0  0  0  0  0  0  0  0  0  0  0
   -1.2117   -1.1934    0.6400 C   0  0  1  0  0  0  0  0  0  0  0  0
   -3.1647    2.4351   -0.8359 C   0  0  0  0  0  0  0  0  0  0  0  0
   -4.5661    0.5950   -0.2612 C   0  0  0  0  0  0  0  0  0  0  0  0
   -4.5943    1.9063   -1.0176 C   0  0  0  0  0  0  0  0  0  0  0  0
   -3.2320    0.8373    1.7879 C   0  0  0  0  0  0  0  0  0  0  0  0
    1.8677    1.1878    0.4276 C   0  0  0  0  0  0  0  0  0  0  0  0
    2.0761   -1.1991    0.3516 C   0  0  1  0  0  0  0  0  0  0  0  0
   -0.0573    2.4247   -0.4769 C   0  0  0  0  0  0  0  0  0  0  0  0
    1.3209    2.2926   -0.1392 C   0  0  0  0  0  0  0  0  0  0  0  0
    1.1126   -0.0588    2.4059 C   0  0  0  0  0  0  0  0  0  0  0  0
    3.2568    1.3169    0.3443 C   0  0  0  0  0  0  0  0  0  0  0  0
    2.1165   -1.4109   -1.1667 C   0  0  0  0  0  0  0  0  0  0  0  0
    4.1345    0.2205    0.6588 C   0  0  0  0  0  0  0  0  0  0  0  0
    3.4830    2.5917   -0.1245 C   0  0  0  0  0  0  0  0  0  0  0  0
   -1.3983   -3.5214    0.2792 C   0  0  0  0  0  0  0  0  0  0  0  0
   -1.2230   -4.4623   -0.8742 C   0  0  0  0  0  0  0  0  0  0  0  0
    3.0944   -2.7431   -2.8376 C   0  0  0  0  0  0  0  0  0  0  0  0
   -2.3383    0.6705   -1.6337 H   0  0  0  0  0  0  0  0  0  0  0  0
   -2.8523   -1.4872   -0.7768 H   0  0  0  0  0  0  0  0  0  0  0  0
   -3.3229   -1.7364    0.8841 H   0  0  0  0  0  0  0  0  0  0  0  0
   -1.1867   -1.3226    1.7296 H   0  0  0  0  0  0  0  0  0  0  0  0
   -2.8629    3.0080   -1.7184 H   0  0  0  0  0  0  0  0  0  0  0  0
   -3.1000    3.0976    0.0346 H   0  0  0  0  0  0  0  0  0  0  0  0
   -4.8086    1.7029   -2.0707 H   0  0  0  0  0  0  0  0  0  0  0  0
   -5.3331    2.5898   -0.5940 H   0  0  0  0  0  0  0  0  0  0  0  0
   -3.6846    1.8316    1.8698 H   0  0  0  0  0  0  0  0  0  0  0  0
   -3.8416    0.1687    2.4077 H   0  0  0  0  0  0  0  0  0  0  0  0
   -2.2395    0.8930    2.2438 H   0  0  0  0  0  0  0  0  0  0  0  0
    1.7794   -2.1403    0.8295 H   0  0  0  0  0  0  0  0  0  0  0  0
    0.4686    0.7349    2.8048 H   0  0  0  0  0  0  0  0  0  0  0  0
    0.7399   -1.0168    2.7842 H   0  0  0  0  0  0  0  0  0  0  0  0
    2.1060    0.0911    2.8453 H   0  0  0  0  0  0  0  0  0  0  0  0
    2.4872   -0.5187   -1.6827 H   0  0  0  0  0  0  0  0  0  0  0  0
    1.1220   -1.6440   -1.5584 H   0  0  0  0  0  0  0  0  0  0  0  0
    4.3672    3.1703   -0.3490 H   0  0  0  0  0  0  0  0  0  0  0  0
   -0.1655   -4.7129   -0.9899 H   0  0  0  0  0  0  0  0  0  0  0  0
   -1.6122   -4.0043   -1.7870 H   0  0  0  0  0  0  0  0  0  0  0  0
   -1.7799   -5.3832   -0.6794 H   0  0  0  0  0  0  0  0  0  0  0  0
    2.1169   -3.0246   -3.2409 H   0  0  0  0  0  0  0  0  0  0  0  0
    3.7864   -3.5769   -2.9832 H   0  0  0  0  0  0  0  0  0  0  0  0
    3.4842   -1.8680   -3.3663 H   0  0  0  0  0  0  0  0  0  0  0  0
  1 15  1  0  0  0  0
  1 29  1  0  0  0  0
  2 21  1  0  0  0  0
  2 27  1  0  0  0  0
  3 23  1  0  0  0  0
  3 28  1  0  0  0  0
  4 17  2  0  0  0  0
  5 22  2  0  0  0  0
  6 26  1  0  0  0  0
  6 31  1  0  0  0  0
  7 27  2  0  0  0  0
  8 29  2  0  0  0  0
  9 10  1  0  0  0  0
  9 12  1  0  0  0  0
  9 17  1  0  0  0  0
  9 19  1  0  0  0  0
 10 14  1  0  0  0  0
 10 16  1  0  0  0  0
 10 32  1  0  0  0  0
 11 13  1  0  0  0  0
 11 14  2  0  0  0  0
 11 15  1  0  0  0  0
 12 15  1  0  0  0  0
 12 33  1  0  0  0  0
 12 34  1  0  0  0  0
 13 20  1  0  0  0  0
 13 21  1  0  0  0  0
 13 24  1  0  0  0  0
 14 22  1  0  0  0  0
 15 35  1  0  0  0  0
 16 18  1  0  0  0  0
 16 36  1  0  0  0  0
 16 37  1  0  0  0  0
 17 18  1  0  0  0  0
 18 38  1  0  0  0  0
 18 39  1  0  0  0  0
 19 40  1  0  0  0  0
 19 41  1  0  0  0  0
 19 42  1  0  0  0  0
 20 23  2  0  0  0  0
 20 25  1  0  0  0  0
 21 26  1  0  0  0  0
 21 43  1  0  0  0  0
 22 23  1  0  0  0  0
 24 44  1  0  0  0  0
 24 45  1  0  0  0  0
 24 46  1  0  0  0  0
 25 27  1  0  0  0  0
 25 28  2  0  0  0  0
 26 47  1  0  0  0  0
 26 48  1  0  0  0  0
 28 49  1  0  0  0  0
 29 30  1  0  0  0  0
 30 50  1  0  0  0  0
 30 51  1  0  0  0  0
 30 52  1  0  0  0  0
 31 53  1  0  0  0  0
 31 54  1  0  0  0  0
 31 55  1  0  0  0  0
M  END
> <DATABASE_ID>
DB08059

> <DATABASE_NAME>
drugbank

> <ORIGINAL_SOURCE>
PUBCHEM

> <ORIGINAL_SOURCE_URL>
https://pubchem.ncbi.nlm.nih.gov/rest/pug/compound/inchikey/QDLHCMPXEPAAMD-QAIWCSMKSA-N/SDF?record_type=3d

> <SMILES>
[H][C@@]12CCC(=O)[C@@]1(C)C[C@@H](OC(C)=O)C1=C2C(=O)C2=C3C(=CO2)C(=O)O[C@H](COC)[C@]13C

> <INCHI_IDENTIFIER>
InChI=1S/C23H24O8/c1-10(24)30-13-7-22(2)12(5-6-14(22)25)16-18(13)23(3)15(9-28-4)31-21(27)11-8-29-20(17(11)23)19(16)26/h8,12-13,15H,5-7,9H2,1-4H3/t12-,13+,15+,22-,23-/m0/s1

> <INCHI_KEY>
QDLHCMPXEPAAMD-QAIWCSMKSA-N

> <FORMULA>
C23H24O8

> <MOLECULAR_WEIGHT>
428.4319

> <EXACT_MASS>
428.147117744

> <JCHEM_ACCEPTOR_COUNT>
5

> <JCHEM_ATOM_COUNT>
55

> <JCHEM_AVERAGE_POLARIZABILITY>
42.97866492702228

> <JCHEM_BIOAVAILABILITY>
1

> <JCHEM_DONOR_COUNT>
0

> <JCHEM_FORMAL_CHARGE>
0

> <JCHEM_GHOSE_FILTER>
1

> <JCHEM_IUPAC>
(1R,3R,5S,9R,18S)-18-(methoxymethyl)-1,5-dimethyl-6,11,16-trioxo-13,17-dioxapentacyclo[10.6.1.0^{2,10}.0^{5,9}.0^{15,19}]nonadeca-2(10),12(19),14-trien-3-yl acetate

> <ALOGPS_LOGP>
2.31

> <JCHEM_LOGP>
1.4426177013333332

> <ALOGPS_LOGS>
-3.55

> <JCHEM_MDDR_LIKE_RULE>
0

> <JCHEM_NUMBER_OF_RINGS>
5

> <JCHEM_PHYSIOLOGICAL_CHARGE>
0

> <JCHEM_PKA_STRONGEST_BASIC>
-3.18707004101998

> <JCHEM_POLAR_SURFACE_AREA>
109.11

> <JCHEM_REFRACTIVITY>
106.8572

> <JCHEM_ROTATABLE_BOND_COUNT>
4

> <JCHEM_RULE_OF_FIVE>
1

> <ALOGPS_SOLUBILITY>
1.21e-01 g/l

> <JCHEM_TRADITIONAL_IUPAC>
(1R,3R,5S,9R,18S)-18-(methoxymethyl)-1,5-dimethyl-6,11,16-trioxo-13,17-dioxapentacyclo[10.6.1.0^{2,10}.0^{5,9}.0^{15,19}]nonadeca-2(10),12(19),14-trien-3-yl acetate

> <JCHEM_VEBER_RULE>
0

$$$$
3003141
  -OEChem-10051721593D

 30 32  0     1  0  0  0  0  0999 V2000
    3.1771    1.3339   -2.4708 Cl  0  0  0  0  0  0  0  0  0  0  0  0
    6.8484   -0.7674    0.8575 Cl  0  0  0  0  0  0  0  0  0  0  0  0
    0.0483   -0.8603   -0.3468 S   0  0  0  0  0  0  0  0  0  0  0  0
   -1.3035    1.6465    0.4556 S   0  0  0  0  0  0  0  0  0  0  0  0
   -3.8943    0.0108    0.0643 N   0  0  0  0  0  0  0  0  0  0  0  0
   -5.9884    0.2181    0.6097 N   0  0  0  0  0  0  0  0  0  0  0  0
   -2.5343   -3.1034   -0.9185 N   0  0  0  0  0  0  0  0  0  0  0  0
    1.1047    0.6370   -0.2877 C   0  0  1  0  0  0  0  0  0  0  0  0
    0.4942    1.5866    0.7474 C   0  0  0  0  0  0  0  0  0  0  0  0
    2.5555    0.2966   -0.0294 C   0  0  0  0  0  0  0  0  0  0  0  0
   -1.4404   -0.0160   -0.0363 C   0  0  0  0  0  0  0  0  0  0  0  0
    3.5512    0.5783   -0.9648 C   0  0  0  0  0  0  0  0  0  0  0  0
    2.8874   -0.3140    1.1801 C   0  0  0  0  0  0  0  0  0  0  0  0
   -2.6295   -0.6146   -0.1704 C   0  0  0  0  0  0  0  0  0  0  0  0
    4.8786    0.2493   -0.6909 C   0  0  0  0  0  0  0  0  0  0  0  0
    4.2148   -0.6429    1.4540 C   0  0  0  0  0  0  0  0  0  0  0  0
    5.2106   -0.3613    0.5185 C   0  0  0  0  0  0  0  0  0  0  0  0
   -4.1400    1.3135   -0.1124 C   0  0  0  0  0  0  0  0  0  0  0  0
   -4.9899   -0.6285    0.4903 C   0  0  0  0  0  0  0  0  0  0  0  0
   -2.5851   -1.9928   -0.5842 C   0  0  0  0  0  0  0  0  0  0  0  0
   -5.4654    1.4305    0.2351 C   0  0  0  0  0  0  0  0  0  0  0  0
    0.9727    1.1035   -1.2674 H   0  0  0  0  0  0  0  0  0  0  0  0
    0.6586    1.2565    1.7788 H   0  0  0  0  0  0  0  0  0  0  0  0
    0.9156    2.5932    0.6548 H   0  0  0  0  0  0  0  0  0  0  0  0
    2.1330   -0.5472    1.9266 H   0  0  0  0  0  0  0  0  0  0  0  0
    5.6565    0.4685   -1.4192 H   0  0  0  0  0  0  0  0  0  0  0  0
    4.4590   -1.1189    2.4002 H   0  0  0  0  0  0  0  0  0  0  0  0
   -3.5192    2.0556   -0.5887 H   0  0  0  0  0  0  0  0  0  0  0  0
   -5.0484   -1.6860    0.7133 H   0  0  0  0  0  0  0  0  0  0  0  0
   -6.0802    2.3180    0.1964 H   0  0  0  0  0  0  0  0  0  0  0  0
  1 12  1  0  0  0  0
  2 17  1  0  0  0  0
  3  8  1  0  0  0  0
  3 11  1  0  0  0  0
  4  9  1  0  0  0  0
  4 11  1  0  0  0  0
  5 14  1  0  0  0  0
  5 18  1  0  0  0  0
  5 19  1  0  0  0  0
  6 19  2  0  0  0  0
  6 21  1  0  0  0  0
  7 20  3  0  0  0  0
  8  9  1  0  0  0  0
  8 10  1  0  0  0  0
  8 22  1  0  0  0  0
  9 23  1  0  0  0  0
  9 24  1  0  0  0  0
 10 12  2  0  0  0  0
 10 13  1  0  0  0  0
 11 14  2  0  0  0  0
 12 15  1  0  0  0  0
 13 16  2  0  0  0  0
 13 25  1  0  0  0  0
 14 20  1  0  0  0  0
 15 17  2  0  0  0  0
 15 26  1  0  0  0  0
 16 17  1  0  0  0  0
 16 27  1  0  0  0  0
 18 21  2  0  0  0  0
 18 28  1  0  0  0  0
 19 29  1  0  0  0  0
 21 30  1  0  0  0  0
M  END
> <DATABASE_ID>
DB08933

> <DATABASE_NAME>
drugbank

> <ORIGINAL_SOURCE>
PUBCHEM

> <ORIGINAL_SOURCE_URL>
https://pubchem.ncbi.nlm.nih.gov/rest/pug/compound/inchikey/YTAOBBFIOAEMLL-REQDGWNSSA-N/SDF?record_type=3d

> <SMILES>
ClC1=CC(Cl)=C(C=C1)[C@@H]1CS\C(S1)=C(\C#N)N1C=CN=C1

> <INCHI_IDENTIFIER>
InChI=1S/C14H9Cl2N3S2/c15-9-1-2-10(11(16)5-9)13-7-20-14(21-13)12(6-17)19-4-3-18-8-19/h1-5,8,13H,7H2/b14-12+/t13-/m0/s1

> <INCHI_KEY>
YTAOBBFIOAEMLL-REQDGWNSSA-N

> <FORMULA>
C14H9Cl2N3S2

> <MOLECULAR_WEIGHT>
354.27

> <EXACT_MASS>
352.961495

> <JCHEM_ACCEPTOR_COUNT>
2

> <JCHEM_ATOM_COUNT>
30

> <JCHEM_AVERAGE_POLARIZABILITY>
33.65139842697815

> <JCHEM_BIOAVAILABILITY>
1

> <JCHEM_DONOR_COUNT>
0

> <JCHEM_FORMAL_CHARGE>
0

> <JCHEM_GHOSE_FILTER>
1

> <JCHEM_IUPAC>
2-[(2E,4R)-4-(2,4-dichlorophenyl)-1,3-dithiolan-2-ylidene]-2-(1H-imidazol-1-yl)acetonitrile

> <ALOGPS_LOGP>
4.27

> <JCHEM_LOGP>
4.069960693666666

> <ALOGPS_LOGS>
-3.73

> <JCHEM_MDDR_LIKE_RULE>
0

> <JCHEM_NUMBER_OF_RINGS>
3

> <JCHEM_PHYSIOLOGICAL_CHARGE>
0

> <JCHEM_PKA_STRONGEST_BASIC>
6.342156685632852

> <JCHEM_POLAR_SURFACE_AREA>
41.61

> <JCHEM_REFRACTIVITY>
101.00049999999999

> <JCHEM_ROTATABLE_BOND_COUNT>
2

> <JCHEM_RULE_OF_FIVE>
1

> <ALOGPS_SOLUBILITY>
6.59e-02 g/l

> <JCHEM_TRADITIONAL_IUPAC>
luliconazole

> <JCHEM_VEBER_RULE>
0

$$$$
3760
  -OEChem-10051721593D

 39 41  0     1  0  0  0  0  0999 V2000
   -2.2210   -0.9694   -2.7301 Cl  0  0  0  0  0  0  0  0  0  0  0  0
   -5.9585    1.3636    0.3615 Cl  0  0  0  0  0  0  0  0  0  0  0  0
    3.1326    0.5197   -2.0282 Cl  0  0  0  0  0  0  0  0  0  0  0  0
   -0.3877    3.0424    1.2849 Cl  0  0  0  0  0  0  0  0  0  0  0  0
    0.4511   -0.2224    0.1736 O   0  0  0  0  0  0  0  0  0  0  0  0
    0.9391   -3.0521    0.6416 N   0  0  0  0  0  0  0  0  0  0  0  0
    2.4878   -4.4332   -0.1081 N   0  0  0  0  0  0  0  0  0  0  0  0
   -0.5507   -1.1962   -0.1496 C   0  0  1  0  0  0  0  0  0  0  0  0
   -0.3602   -2.4070    0.7866 C   0  0  0  0  0  0  0  0  0  0  0  0
   -1.9015   -0.5635   -0.0545 C   0  0  0  0  0  0  0  0  0  0  0  0
    0.3984    0.8771   -0.7181 C   0  0  0  0  0  0  0  0  0  0  0  0
   -2.7232   -0.4205   -1.1726 C   0  0  0  0  0  0  0  0  0  0  0  0
   -2.3344   -0.1108    1.1918 C   0  0  0  0  0  0  0  0  0  0  0  0
    1.4623    1.8654   -0.3401 C   0  0  0  0  0  0  0  0  0  0  0  0
    2.0623   -2.7394    1.3367 C   0  0  0  0  0  0  0  0  0  0  0  0
    1.2293   -4.0678   -0.2120 C   0  0  0  0  0  0  0  0  0  0  0  0
   -3.9779    0.1755   -1.0443 C   0  0  0  0  0  0  0  0  0  0  0  0
   -3.5889    0.4850    1.3201 C   0  0  0  0  0  0  0  0  0  0  0  0
   -4.4107    0.6283    0.2021 C   0  0  0  0  0  0  0  0  0  0  0  0
    3.0126   -3.6094    0.8560 C   0  0  0  0  0  0  0  0  0  0  0  0
    2.7351    1.7651   -0.8996 C   0  0  0  0  0  0  0  0  0  0  0  0
    1.1759    2.8823    0.5694 C   0  0  0  0  0  0  0  0  0  0  0  0
    3.7241    2.6841   -0.5487 C   0  0  0  0  0  0  0  0  0  0  0  0
    2.1650    3.8011    0.9203 C   0  0  0  0  0  0  0  0  0  0  0  0
    3.4391    3.7021    0.3611 C   0  0  0  0  0  0  0  0  0  0  0  0
   -0.3178   -1.5561   -1.1561 H   0  0  0  0  0  0  0  0  0  0  0  0
   -0.4318   -2.1172    1.8419 H   0  0  0  0  0  0  0  0  0  0  0  0
   -1.1249   -3.1706    0.5995 H   0  0  0  0  0  0  0  0  0  0  0  0
   -0.5722    1.3806   -0.7236 H   0  0  0  0  0  0  0  0  0  0  0  0
    0.5262    0.5309   -1.7503 H   0  0  0  0  0  0  0  0  0  0  0  0
   -1.7073   -0.1994    2.0746 H   0  0  0  0  0  0  0  0  0  0  0  0
    2.0993   -1.9587    2.0836 H   0  0  0  0  0  0  0  0  0  0  0  0
    0.5005   -4.5017   -0.8830 H   0  0  0  0  0  0  0  0  0  0  0  0
   -4.6202    0.2881   -1.9153 H   0  0  0  0  0  0  0  0  0  0  0  0
   -3.9116    0.8362    2.2969 H   0  0  0  0  0  0  0  0  0  0  0  0
    4.0481   -3.6834    1.1544 H   0  0  0  0  0  0  0  0  0  0  0  0
    4.7222    2.6208   -0.9748 H   0  0  0  0  0  0  0  0  0  0  0  0
    1.9594    4.6005    1.6278 H   0  0  0  0  0  0  0  0  0  0  0  0
    4.2092    4.4176    0.6343 H   0  0  0  0  0  0  0  0  0  0  0  0
  1 12  1  0  0  0  0
  2 19  1  0  0  0  0
  3 21  1  0  0  0  0
  4 22  1  0  0  0  0
  5  8  1  0  0  0  0
  5 11  1  0  0  0  0
  6  9  1  0  0  0  0
  6 15  1  0  0  0  0
  6 16  1  0  0  0  0
  7 16  2  0  0  0  0
  7 20  1  0  0  0  0
  8  9  1  0  0  0  0
  8 10  1  0  0  0  0
  8 26  1  0  0  0  0
  9 27  1  0  0  0  0
  9 28  1  0  0  0  0
 10 12  2  0  0  0  0
 10 13  1  0  0  0  0
 11 14  1  0  0  0  0
 11 29  1  0  0  0  0
 11 30  1  0  0  0  0
 12 17  1  0  0  0  0
 13 18  2  0  0  0  0
 13 31  1  0  0  0  0
 14 21  2  0  0  0  0
 14 22  1  0  0  0  0
 15 20  2  0  0  0  0
 15 32  1  0  0  0  0
 16 33  1  0  0  0  0
 17 19  2  0  0  0  0
 17 34  1  0  0  0  0
 18 19  1  0  0  0  0
 18 35  1  0  0  0  0
 20 36  1  0  0  0  0
 21 23  1  0  0  0  0
 22 24  2  0  0  0  0
 23 25  2  0  0  0  0
 23 37  1  0  0  0  0
 24 25  1  0  0  0  0
 24 38  1  0  0  0  0
 25 39  1  0  0  0  0
M  END
> <DATABASE_ID>
DB08943

> <DATABASE_NAME>
drugbank

> <ORIGINAL_SOURCE>
PUBCHEM

> <ORIGINAL_SOURCE_URL>
https://pubchem.ncbi.nlm.nih.gov/rest/pug/compound/inchikey/MPIPASJGOJYODL-UHFFFAOYSA-N/SDF?record_type=3d

> <SMILES>
ClC1=CC(Cl)=C(C=C1)C(CN1C=CN=C1)OCC1=C(Cl)C=CC=C1Cl

> <INCHI_IDENTIFIER>
InChI=1S/C18H14Cl4N2O/c19-12-4-5-13(17(22)8-12)18(9-24-7-6-23-11-24)25-10-14-15(20)2-1-3-16(14)21/h1-8,11,18H,9-10H2

> <INCHI_KEY>
MPIPASJGOJYODL-UHFFFAOYSA-N

> <FORMULA>
C18H14Cl4N2O

> <MOLECULAR_WEIGHT>
416.129

> <EXACT_MASS>
413.986023908

> <JCHEM_ACCEPTOR_COUNT>
2

> <JCHEM_AVERAGE_POLARIZABILITY>
39.30732375881153

> <JCHEM_BIOAVAILABILITY>
1

> <JCHEM_DONOR_COUNT>
0

> <JCHEM_FORMAL_CHARGE>
0

> <JCHEM_GHOSE_FILTER>
0

> <JCHEM_IUPAC>
1-[2-(2,4-dichlorophenyl)-2-[(2,6-dichlorophenyl)methoxy]ethyl]-1H-imidazole

> <ALOGPS_LOGP>
5.23

> <JCHEM_LOGP>
5.956368360333332

> <ALOGPS_LOGS>
-5.70

> <JCHEM_MDDR_LIKE_RULE>
1

> <JCHEM_NUMBER_OF_RINGS>
3

> <JCHEM_PHYSIOLOGICAL_CHARGE>
1

> <JCHEM_PKA_STRONGEST_BASIC>
6.7672919013557715

> <JCHEM_POLAR_SURFACE_AREA>
27.05

> <JCHEM_REFRACTIVITY>
103.06759999999998

> <JCHEM_ROTATABLE_BOND_COUNT>
6

> <JCHEM_RULE_OF_FIVE>
0

> <ALOGPS_SOLUBILITY>
8.25e-04 g/l

> <JCHEM_TRADITIONAL_IUPAC>
isoconazole

> <JCHEM_VEBER_RULE>
1

$$$$
3607
  -OEChem-10051721593D

 69 69  0     1  0  0  0  0  0999 V2000
   -1.1064   -1.1206    0.2665 N   0  0  2  0  0  0  0  0  0  0  0  0
    1.3186   -0.9096    0.1091 N   0  0  1  0  0  0  0  0  0  0  0  0
    0.2306   -3.9408   -1.8093 N   0  0  0  0  0  0  0  0  0  0  0  0
    0.1415   -2.5557   -1.3276 C   0  0  0  0  0  0  0  0  0  0  0  0
   -1.0747   -2.4423   -0.3814 C   0  0  0  0  0  0  0  0  0  0  0  0
    1.4316   -2.2242   -0.5445 C   0  0  0  0  0  0  0  0  0  0  0  0
    0.1473   -0.8793    1.0036 C   0  0  0  0  0  0  0  0  0  0  0  0
   -2.2597   -1.0139    1.1595 C   0  0  0  0  0  0  0  0  0  0  0  0
    2.5413   -0.5966    0.8479 C   0  0  0  0  0  0  0  0  0  0  0  0
   -2.6136    0.4413    1.5339 C   0  0  1  0  0  0  0  0  0  0  0  0
    3.6997   -0.1222   -0.0553 C   0  0  1  0  0  0  0  0  0  0  0  0
   -0.0185   -1.6304   -2.5498 C   0  0  0  0  0  0  0  0  0  0  0  0
   -2.8983    1.3426    0.3077 C   0  0  0  0  0  0  0  0  0  0  0  0
    3.3484    1.1213   -0.9081 C   0  0  0  0  0  0  0  0  0  0  0  0
   -3.8105    0.5415    2.5098 C   0  0  0  0  0  0  0  0  0  0  0  0
    5.0003    0.1691    0.7312 C   0  0  0  0  0  0  0  0  0  0  0  0
   -4.1126    0.9608   -0.5470 C   0  0  0  0  0  0  0  0  0  0  0  0
    3.0393    2.4085   -0.1346 C   0  0  0  0  0  0  0  0  0  0  0  0
   -3.6553   -0.3038    3.7664 C   0  0  0  0  0  0  0  0  0  0  0  0
    5.4584   -0.9824    1.6155 C   0  0  0  0  0  0  0  0  0  0  0  0
   -4.2833    1.8357   -1.7891 C   0  0  0  0  0  0  0  0  0  0  0  0
    2.6137    3.5714   -1.0313 C   0  0  0  0  0  0  0  0  0  0  0  0
   -5.5544    1.4816   -2.5458 C   0  0  0  0  0  0  0  0  0  0  0  0
    2.4165    4.8476   -0.2273 C   0  0  0  0  0  0  0  0  0  0  0  0
   -1.9975   -2.5947   -0.9569 H   0  0  0  0  0  0  0  0  0  0  0  0
   -1.0379   -3.2319    0.3831 H   0  0  0  0  0  0  0  0  0  0  0  0
    1.6235   -3.0032    0.2078 H   0  0  0  0  0  0  0  0  0  0  0  0
    2.2778   -2.2383   -1.2415 H   0  0  0  0  0  0  0  0  0  0  0  0
    0.2680   -1.6017    1.8234 H   0  0  0  0  0  0  0  0  0  0  0  0
    0.1097    0.1202    1.4480 H   0  0  0  0  0  0  0  0  0  0  0  0
   -3.1436   -1.4590    0.6851 H   0  0  0  0  0  0  0  0  0  0  0  0
   -2.0774   -1.6107    2.0614 H   0  0  0  0  0  0  0  0  0  0  0  0
    2.3481    0.1994    1.5784 H   0  0  0  0  0  0  0  0  0  0  0  0
    2.8437   -1.4680    1.4412 H   0  0  0  0  0  0  0  0  0  0  0  0
   -1.7601    0.8837    2.0627 H   0  0  0  0  0  0  0  0  0  0  0  0
    3.9432   -0.9304   -0.7569 H   0  0  0  0  0  0  0  0  0  0  0  0
    0.8334   -1.7293   -3.2330 H   0  0  0  0  0  0  0  0  0  0  0  0
   -0.9261   -1.8741   -3.1146 H   0  0  0  0  0  0  0  0  0  0  0  0
   -0.0863   -0.5752   -2.2639 H   0  0  0  0  0  0  0  0  0  0  0  0
   -2.0076    1.3644   -0.3329 H   0  0  0  0  0  0  0  0  0  0  0  0
   -3.0325    2.3750    0.6575 H   0  0  0  0  0  0  0  0  0  0  0  0
    4.1831    1.3214   -1.5933 H   0  0  0  0  0  0  0  0  0  0  0  0
    2.4926    0.8814   -1.5518 H   0  0  0  0  0  0  0  0  0  0  0  0
    0.3135   -4.5801   -1.0196 H   0  0  0  0  0  0  0  0  0  0  0  0
   -0.6313   -4.1957   -2.2904 H   0  0  0  0  0  0  0  0  0  0  0  0
   -3.9469    1.5891    2.8050 H   0  0  0  0  0  0  0  0  0  0  0  0
   -4.7374    0.2237    2.0211 H   0  0  0  0  0  0  0  0  0  0  0  0
    5.8026    0.4091    0.0226 H   0  0  0  0  0  0  0  0  0  0  0  0
    4.8746    1.0422    1.3798 H   0  0  0  0  0  0  0  0  0  0  0  0
   -5.0253    1.0389    0.0532 H   0  0  0  0  0  0  0  0  0  0  0  0
   -4.0287   -0.0832   -0.8682 H   0  0  0  0  0  0  0  0  0  0  0  0
    3.9237    2.7202    0.4313 H   0  0  0  0  0  0  0  0  0  0  0  0
    2.2419    2.2235    0.5935 H   0  0  0  0  0  0  0  0  0  0  0  0
   -3.7242   -1.3730    3.5458 H   0  0  0  0  0  0  0  0  0  0  0  0
   -4.4553   -0.0672    4.4757 H   0  0  0  0  0  0  0  0  0  0  0  0
   -2.6982   -0.1063    4.2590 H   0  0  0  0  0  0  0  0  0  0  0  0
    4.7907   -1.1269    2.4698 H   0  0  0  0  0  0  0  0  0  0  0  0
    6.4554   -0.7708    2.0159 H   0  0  0  0  0  0  0  0  0  0  0  0
    5.5135   -1.9171    1.0490 H   0  0  0  0  0  0  0  0  0  0  0  0
   -3.4182    1.7131   -2.4508 H   0  0  0  0  0  0  0  0  0  0  0  0
   -4.3224    2.8915   -1.4970 H   0  0  0  0  0  0  0  0  0  0  0  0
    1.6814    3.3184   -1.5491 H   0  0  0  0  0  0  0  0  0  0  0  0
    3.3757    3.7460   -1.7996 H   0  0  0  0  0  0  0  0  0  0  0  0
   -6.4397    1.6309   -1.9193 H   0  0  0  0  0  0  0  0  0  0  0  0
   -5.6557    2.1149   -3.4326 H   0  0  0  0  0  0  0  0  0  0  0  0
   -5.5373    0.4375   -2.8741 H   0  0  0  0  0  0  0  0  0  0  0  0
    3.3442    5.1453    0.2719 H   0  0  0  0  0  0  0  0  0  0  0  0
    2.1080    5.6658   -0.8857 H   0  0  0  0  0  0  0  0  0  0  0  0
    1.6425    4.7149    0.5353 H   0  0  0  0  0  0  0  0  0  0  0  0
  1  5  1  0  0  0  0
  1  7  1  0  0  0  0
  1  8  1  0  0  0  0
  2  6  1  0  0  0  0
  2  7  1  0  0  0  0
  2  9  1  0  0  0  0
  3  4  1  0  0  0  0
  3 44  1  0  0  0  0
  3 45  1  0  0  0  0
  4  5  1  0  0  0  0
  4  6  1  0  0  0  0
  4 12  1  0  0  0  0
  5 25  1  0  0  0  0
  5 26  1  0  0  0  0
  6 27  1  0  0  0  0
  6 28  1  0  0  0  0
  7 29  1  0  0  0  0
  7 30  1  0  0  0  0
  8 10  1  0  0  0  0
  8 31  1  0  0  0  0
  8 32  1  0  0  0  0
  9 11  1  0  0  0  0
  9 33  1  0  0  0  0
  9 34  1  0  0  0  0
 10 13  1  0  0  0  0
 10 15  1  0  0  0  0
 10 35  1  0  0  0  0
 11 14  1  0  0  0  0
 11 16  1  0  0  0  0
 11 36  1  0  0  0  0
 12 37  1  0  0  0  0
 12 38  1  0  0  0  0
 12 39  1  0  0  0  0
 13 17  1  0  0  0  0
 13 40  1  0  0  0  0
 13 41  1  0  0  0  0
 14 18  1  0  0  0  0
 14 42  1  0  0  0  0
 14 43  1  0  0  0  0
 15 19  1  0  0  0  0
 15 46  1  0  0  0  0
 15 47  1  0  0  0  0
 16 20  1  0  0  0  0
 16 48  1  0  0  0  0
 16 49  1  0  0  0  0
 17 21  1  0  0  0  0
 17 50  1  0  0  0  0
 17 51  1  0  0  0  0
 18 22  1  0  0  0  0
 18 52  1  0  0  0  0
 18 53  1  0  0  0  0
 19 54  1  0  0  0  0
 19 55  1  0  0  0  0
 19 56  1  0  0  0  0
 20 57  1  0  0  0  0
 20 58  1  0  0  0  0
 20 59  1  0  0  0  0
 21 23  1  0  0  0  0
 21 60  1  0  0  0  0
 21 61  1  0  0  0  0
 22 24  1  0  0  0  0
 22 62  1  0  0  0  0
 22 63  1  0  0  0  0
 23 64  1  0  0  0  0
 23 65  1  0  0  0  0
 23 66  1  0  0  0  0
 24 67  1  0  0  0  0
 24 68  1  0  0  0  0
 24 69  1  0  0  0  0
M  END
> <DATABASE_ID>
DB08958

> <DATABASE_NAME>
drugbank

> <ORIGINAL_SOURCE>
PUBCHEM

> <ORIGINAL_SOURCE_URL>
https://pubchem.ncbi.nlm.nih.gov/rest/pug/compound/inchikey/DTOUUUZOYKYHEP-UHFFFAOYSA-N/SDF?record_type=3d

> <SMILES>
CCCCC(CC)CN1CN(CC(CC)CCCC)CC(C)(N)C1

> <INCHI_IDENTIFIER>
InChI=1S/C21H45N3/c1-6-10-12-19(8-3)14-23-16-21(5,22)17-24(18-23)15-20(9-4)13-11-7-2/h19-20H,6-18,22H2,1-5H3

> <INCHI_KEY>
DTOUUUZOYKYHEP-UHFFFAOYSA-N

> <FORMULA>
C21H45N3

> <MOLECULAR_WEIGHT>
339.6021

> <EXACT_MASS>
339.361348455

> <JCHEM_ACCEPTOR_COUNT>
3

> <JCHEM_AVERAGE_POLARIZABILITY>
44.06833629768474

> <JCHEM_BIOAVAILABILITY>
0

> <JCHEM_DONOR_COUNT>
1

> <JCHEM_FORMAL_CHARGE>
0

> <JCHEM_GHOSE_FILTER>
0

> <JCHEM_IUPAC>
1,3-bis(2-ethylhexyl)-5-methyl-1,3-diazinan-5-amine

> <ALOGPS_LOGP>
4.98

> <JCHEM_LOGP>
5.735905588666666

> <ALOGPS_LOGS>
-4.76

> <JCHEM_MDDR_LIKE_RULE>
0

> <JCHEM_NUMBER_OF_RINGS>
1

> <JCHEM_PHYSIOLOGICAL_CHARGE>
1

> <JCHEM_PKA_STRONGEST_BASIC>
9.11705672914774

> <JCHEM_POLAR_SURFACE_AREA>
32.5

> <JCHEM_REFRACTIVITY>
107.40229999999998

> <JCHEM_ROTATABLE_BOND_COUNT>
12

> <JCHEM_RULE_OF_FIVE>
0

> <ALOGPS_SOLUBILITY>
5.94e-03 g/l

> <JCHEM_TRADITIONAL_IUPAC>
oraldene

> <JCHEM_VEBER_RULE>
0

$$$$

  Mrv1902 02111921292D          

 27 26  0  0  0  0            999 V2000
   -3.5708    0.0032    0.0000 C   0  0  0  0  0  0  0  0  0  0  0  0
   -2.8567   -0.4102    0.0000 C   0  0  0  0  0  0  0  0  0  0  0  0
   -2.1608    0.0056    0.0000 C   0  0  0  0  0  0  0  0  0  0  0  0
   -1.4468   -0.4077    0.0000 C   0  0  0  0  0  0  0  0  0  0  0  0
   -0.7341    0.0082    0.0000 C   0  0  0  0  0  0  0  0  0  0  0  0
   -0.0202   -0.4051    0.0000 C   0  0  0  0  0  0  0  0  0  0  0  0
   -4.2581   -0.4128    0.0000 C   0  0  0  0  0  0  0  0  0  0  0  0
    0.6922    0.0108    0.0000 O   0  0  0  0  0  0  0  0  0  0  0  0
    2.1213    0.0179    0.0000 O   0  0  0  0  0  0  0  0  0  0  0  0
    2.8358   -0.3946    0.0000 C   0  0  0  0  0  0  0  0  0  0  0  0
    3.5502    0.0179    0.0000 C   0  0  0  0  0  0  0  0  0  0  0  0
    4.2648   -0.3945    0.0000 N   0  3  0  0  0  0  0  0  0  0  0  0
    4.9792    0.0179    0.0000 C   0  0  0  0  0  0  0  0  0  0  0  0
    4.2648   -1.2195    0.0000 C   0  0  0  0  0  0  0  0  0  0  0  0
    4.9810   -0.8128    0.0000 C   0  0  0  0  0  0  0  0  0  0  0  0
    1.4088   -0.3981    0.0000 P   0  0  0  0  0  0  0  0  0  0  0  0
    1.4128   -1.2231    0.0000 O   0  0  0  0  0  0  0  0  0  0  0  0
    1.4088    0.4269    0.0000 O   0  5  0  0  0  0  0  0  0  0  0  0
   -4.9810   -0.0152    0.0000 C   0  0  0  0  0  0  0  0  0  0  0  0
   -1.4305    1.2181    0.0000 C   0  0  0  0  0  0  0  0  0  0  0  0
   -2.1446    0.8047    0.0000 C   0  0  0  0  0  0  0  0  0  0  0  0
   -2.8404    1.2205    0.0000 C   0  0  0  0  0  0  0  0  0  0  0  0
   -3.5544    0.8072    0.0000 C   0  0  0  0  0  0  0  0  0  0  0  0
   -4.2670    1.2231    0.0000 C   0  0  0  0  0  0  0  0  0  0  0  0
   -4.9810    0.8098    0.0000 C   0  0  0  0  0  0  0  0  0  0  0  0
   -0.7431    0.8021    0.0000 C   0  0  0  0  0  0  0  0  0  0  0  0
   -0.0202    1.1995    0.0000 C   0  0  0  0  0  0  0  0  0  0  0  0
  2  1  1  0  0  0  0
  7  1  1  0  0  0  0
  3  2  1  0  0  0  0
  4  3  1  0  0  0  0
  5  4  1  0  0  0  0
  6  5  1  0  0  0  0
  8  6  1  0  0  0  0
 10  9  1  0  0  0  0
 11 10  1  0  0  0  0
 12 11  1  0  0  0  0
 12 13  1  0  0  0  0
 12 14  1  0  0  0  0
 12 15  1  0  0  0  0
  8 16  1  0  0  0  0
 16  9  1  0  0  0  0
 16 17  2  0  0  0  0
 16 18  1  0  0  0  0
  7 19  1  0  0  0  0
 21 20  1  0  0  0  0
 26 20  1  0  0  0  0
 22 21  1  0  0  0  0
 23 22  1  0  0  0  0
 24 23  1  0  0  0  0
 25 24  1  0  0  0  0
 26 27  1  0  0  0  0
 19 25  1  0  0  0  0
M  CHG  2  12   1  18  -1
M  END
> <DATABASE_ID>
DB09031

> <DATABASE_NAME>
drugbank

> <SMILES>
CCCCCCCCCCCCCCCCOP([O-])(=O)OCC[N+](C)(C)C

> <INCHI_IDENTIFIER>
InChI=1S/C21H46NO4P/c1-5-6-7-8-9-10-11-12-13-14-15-16-17-18-20-25-27(23,24)26-21-19-22(2,3)4/h5-21H2,1-4H3

> <INCHI_KEY>
PQLXHQMOHUQAKB-UHFFFAOYSA-N

> <FORMULA>
C21H46NO4P

> <MOLECULAR_WEIGHT>
407.576

> <EXACT_MASS>
407.316445963

> <JCHEM_ACCEPTOR_COUNT>
2

> <JCHEM_ATOM_COUNT>
73

> <JCHEM_AVERAGE_POLARIZABILITY>
50.58768696219128

> <JCHEM_BIOAVAILABILITY>
1

> <JCHEM_DONOR_COUNT>
0

> <JCHEM_FORMAL_CHARGE>
0

> <JCHEM_GHOSE_FILTER>
0

> <JCHEM_IUPAC>
hexadecyl 2-(trimethylazaniumyl)ethyl phosphate

> <ALOGPS_LOGP>
2.68

> <JCHEM_LOGP>
2.2508485231949216

> <ALOGPS_LOGS>
-6.32

> <JCHEM_MDDR_LIKE_RULE>
0

> <JCHEM_NUMBER_OF_RINGS>
0

> <JCHEM_PHYSIOLOGICAL_CHARGE>
0

> <JCHEM_PKA_STRONGEST_ACIDIC>
1.8803148742183158

> <JCHEM_POLAR_SURFACE_AREA>
58.59

> <JCHEM_REFRACTIVITY>
125.51309999999997

> <JCHEM_ROTATABLE_BOND_COUNT>
20

> <JCHEM_RULE_OF_FIVE>
1

> <ALOGPS_SOLUBILITY>
2.20e-04 g/l

> <JCHEM_TRADITIONAL_IUPAC>
miltex

> <JCHEM_VEBER_RULE>
0

> <DRUGBANK_ID>
DB09031

> <DRUG_GROUPS>
approved; investigational

> <GENERIC_NAME>
Miltefosine

> <SYNONYMS>
HDPC; hexadecyl 2-(trimethylazaniumyl)ethyl phosphate; Hexadecylphosphocholine; Hexadecylphosphorylcholine; Miltefosin; Miltefosina; Miltéfosine; Miltefosine; Monohexadecylphosphocholine; Monohexadecylphosphorylcholine

> <PRODUCTS>
Impavido

> <INTERNATIONAL_BRANDS>
Miltex

$$$$
489181
  -OEChem-10051722013D

 47 49  0     1  0  0  0  0  0999 V2000
   -1.2950   -1.0667    2.1233 F   0  0  0  0  0  0  0  0  0  0  0  0
   -5.2711   -2.1678   -0.1935 F   0  0  0  0  0  0  0  0  0  0  0  0
    0.3026    0.3103   -1.5498 O   0  0  0  0  0  0  0  0  0  0  0  0
    2.3529   -0.6901    0.2407 N   0  0  0  0  0  0  0  0  0  0  0  0
   -0.8396    2.2294    0.4039 N   0  0  0  0  0  0  0  0  0  0  0  0
   -2.0486    2.2726    0.9540 N   0  0  0  0  0  0  0  0  0  0  0  0
   -1.6565    4.0445   -0.4385 N   0  0  0  0  0  0  0  0  0  0  0  0
    0.9946   -1.2223    0.1886 C   0  0  1  0  0  0  0  0  0  0  0  0
   -0.0397   -0.1139   -0.2217 C   0  0  1  0  0  0  0  0  0  0  0  0
    2.7689   -0.1718   -1.0739 C   0  0  0  0  0  0  0  0  0  0  0  0
    3.3012   -1.6726    0.7685 C   0  0  0  0  0  0  0  0  0  0  0  0
    0.0693    1.1243    0.7215 C   0  0  0  0  0  0  0  0  0  0  0  0
    4.2919   -0.1042   -1.2814 C   0  0  0  0  0  0  0  0  0  0  0  0
    4.6551   -1.0064    1.0630 C   0  0  0  0  0  0  0  0  0  0  0  0
    0.9976   -2.4291   -0.7605 C   0  0  0  0  0  0  0  0  0  0  0  0
   -1.4691   -0.6756   -0.2113 C   0  0  0  0  0  0  0  0  0  0  0  0
    5.0229    0.0224    0.0244 C   0  0  0  0  0  0  0  0  0  0  0  0
   -1.9922   -1.1154    0.9795 C   0  0  0  0  0  0  0  0  0  0  0  0
   -2.1613   -0.7129   -1.3967 C   0  0  0  0  0  0  0  0  0  0  0  0
    5.9006    1.0048    0.2722 C   0  0  0  0  0  0  0  0  0  0  0  0
   -3.2905   -1.6250    0.9856 C   0  0  0  0  0  0  0  0  0  0  0  0
   -3.4597   -1.2226   -1.3906 C   0  0  0  0  0  0  0  0  0  0  0  0
   -0.5989    3.2671   -0.4171 C   0  0  0  0  0  0  0  0  0  0  0  0
   -4.0243   -1.6786   -0.1995 C   0  0  0  0  0  0  0  0  0  0  0  0
   -2.5112    3.3998    0.4090 C   0  0  0  0  0  0  0  0  0  0  0  0
    0.7374   -1.5837    1.1914 H   0  0  0  0  0  0  0  0  0  0  0  0
    2.4400    0.8719   -1.1438 H   0  0  0  0  0  0  0  0  0  0  0  0
    2.4015   -0.7043   -1.9518 H   0  0  0  0  0  0  0  0  0  0  0  0
    3.4850   -2.4931    0.0642 H   0  0  0  0  0  0  0  0  0  0  0  0
    2.9338   -2.1188    1.7009 H   0  0  0  0  0  0  0  0  0  0  0  0
    1.0698    1.5697    0.6627 H   0  0  0  0  0  0  0  0  0  0  0  0
   -0.0982    0.8707    1.7741 H   0  0  0  0  0  0  0  0  0  0  0  0
    4.5356    0.7164   -1.9670 H   0  0  0  0  0  0  0  0  0  0  0  0
    4.6317   -1.0288   -1.7671 H   0  0  0  0  0  0  0  0  0  0  0  0
    5.4313   -1.7796    1.1083 H   0  0  0  0  0  0  0  0  0  0  0  0
    4.6073   -0.5264    2.0490 H   0  0  0  0  0  0  0  0  0  0  0  0
    1.2517   -2.2403   -1.8040 H   0  0  0  0  0  0  0  0  0  0  0  0
    1.6307   -3.2472   -0.4031 H   0  0  0  0  0  0  0  0  0  0  0  0
   -0.0062   -2.8711   -0.7859 H   0  0  0  0  0  0  0  0  0  0  0  0
    0.2497   -0.4440   -2.1587 H   0  0  0  0  0  0  0  0  0  0  0  0
   -1.7761   -0.3577   -2.3449 H   0  0  0  0  0  0  0  0  0  0  0  0
    6.3996    1.0818    1.2325 H   0  0  0  0  0  0  0  0  0  0  0  0
    6.1401    1.7502   -0.4786 H   0  0  0  0  0  0  0  0  0  0  0  0
   -3.7303   -1.9796    1.9130 H   0  0  0  0  0  0  0  0  0  0  0  0
   -4.0333   -1.2616   -2.3120 H   0  0  0  0  0  0  0  0  0  0  0  0
    0.3218    3.4181   -0.9629 H   0  0  0  0  0  0  0  0  0  0  0  0
   -3.5024    3.7624    0.6365 H   0  0  0  0  0  0  0  0  0  0  0  0
  1 18  1  0  0  0  0
  2 24  1  0  0  0  0
  3  9  1  0  0  0  0
  3 40  1  0  0  0  0
  4  8  1  0  0  0  0
  4 10  1  0  0  0  0
  4 11  1  0  0  0  0
  5  6  1  0  0  0  0
  5 12  1  0  0  0  0
  5 23  1  0  0  0  0
  6 25  2  0  0  0  0
  7 23  2  0  0  0  0
  7 25  1  0  0  0  0
  8  9  1  0  0  0  0
  8 15  1  0  0  0  0
  8 26  1  0  0  0  0
  9 12  1  0  0  0  0
  9 16  1  0  0  0  0
 10 13  1  0  0  0  0
 10 27  1  0  0  0  0
 10 28  1  0  0  0  0
 11 14  1  0  0  0  0
 11 29  1  0  0  0  0
 11 30  1  0  0  0  0
 12 31  1  0  0  0  0
 12 32  1  0  0  0  0
 13 17  1  0  0  0  0
 13 33  1  0  0  0  0
 13 34  1  0  0  0  0
 14 17  1  0  0  0  0
 14 35  1  0  0  0  0
 14 36  1  0  0  0  0
 15 37  1  0  0  0  0
 15 38  1  0  0  0  0
 15 39  1  0  0  0  0
 16 18  2  0  0  0  0
 16 19  1  0  0  0  0
 17 20  2  0  0  0  0
 18 21  1  0  0  0  0
 19 22  2  0  0  0  0
 19 41  1  0  0  0  0
 20 42  1  0  0  0  0
 20 43  1  0  0  0  0
 21 24  2  0  0  0  0
 21 44  1  0  0  0  0
 22 24  1  0  0  0  0
 22 45  1  0  0  0  0
 23 46  1  0  0  0  0
 25 47  1  0  0  0  0
M  END
> <DATABASE_ID>
DB09040

> <DATABASE_NAME>
drugbank

> <ORIGINAL_SOURCE>
PUBCHEM

> <ORIGINAL_SOURCE_URL>
https://pubchem.ncbi.nlm.nih.gov/rest/pug/compound/inchikey/NFEZZTICAUWDHU-RDTXWAMCSA-N/SDF?record_type=3d

> <SMILES>
C[C@@H](N1CCC(=C)CC1)[C@](O)(CN1C=NC=N1)C1=C(F)C=C(F)C=C1

> <INCHI_IDENTIFIER>
InChI=1S/C18H22F2N4O/c1-13-5-7-23(8-6-13)14(2)18(25,10-24-12-21-11-22-24)16-4-3-15(19)9-17(16)20/h3-4,9,11-12,14,25H,1,5-8,10H2,2H3/t14-,18-/m1/s1

> <INCHI_KEY>
NFEZZTICAUWDHU-RDTXWAMCSA-N

> <FORMULA>
C18H22F2N4O

> <MOLECULAR_WEIGHT>
348.398

> <EXACT_MASS>
348.17616767

> <JCHEM_ACCEPTOR_COUNT>
4

> <JCHEM_ATOM_COUNT>
47

> <JCHEM_AVERAGE_POLARIZABILITY>
34.48055029202555

> <JCHEM_BIOAVAILABILITY>
1

> <JCHEM_DONOR_COUNT>
1

> <JCHEM_FORMAL_CHARGE>
0

> <JCHEM_GHOSE_FILTER>
1

> <JCHEM_IUPAC>
(2R,3R)-2-(2,4-difluorophenyl)-3-(4-methylidenepiperidin-1-yl)-1-(1H-1,2,4-triazol-1-yl)butan-2-ol

> <ALOGPS_LOGP>
1.49

> <JCHEM_LOGP>
2.2428559576666665

> <ALOGPS_LOGS>
-2.76

> <JCHEM_MDDR_LIKE_RULE>
0

> <JCHEM_NUMBER_OF_RINGS>
3

> <JCHEM_PHYSIOLOGICAL_CHARGE>
1

> <JCHEM_PKA_STRONGEST_ACIDIC>
12.702722637855544

> <JCHEM_PKA_STRONGEST_BASIC>
7.454521573192589

> <JCHEM_POLAR_SURFACE_AREA>
54.18000000000001

> <JCHEM_REFRACTIVITY>
103.93899999999998

> <JCHEM_ROTATABLE_BOND_COUNT>
5

> <JCHEM_RULE_OF_FIVE>
1

> <ALOGPS_SOLUBILITY>
6.10e-01 g/l

> <JCHEM_TRADITIONAL_IUPAC>
(2R,3R)-2-(2,4-difluorophenyl)-3-(4-methylidenepiperidin-1-yl)-1-(1,2,4-triazol-1-yl)butan-2-ol

> <JCHEM_VEBER_RULE>
0

$$$$
 
  Mrv1533004231513282D          

 11 12  0  0  0  0            999 V2000
   15.6014  -18.1299    0.0000 C   0  0  0  0  0  0  0  0  0  0  0  0
   15.6014  -18.9549    0.0000 C   0  0  0  0  0  0  0  0  0  0  0  0
   16.3158  -19.3674    0.0000 C   0  0  0  0  0  0  0  0  0  0  0  0
   17.0303  -18.9549    0.0000 C   0  0  0  0  0  0  0  0  0  0  0  0
   17.0303  -18.1299    0.0000 C   0  0  0  0  0  0  0  0  0  0  0  0
   16.3158  -17.7174    0.0000 C   0  0  0  0  0  0  0  0  0  0  0  0
   14.8869  -19.3674    0.0000 F   0  0  0  0  0  0  0  0  0  0  0  0
   17.8150  -19.2098    0.0000 C   0  0  0  0  0  0  0  0  0  0  0  0
   18.2999  -18.5424    0.0000 O   0  0  0  0  0  0  0  0  0  0  0  0
   17.8150  -17.8750    0.0000 B   0  0  0  0  0  0  0  0  0  0  0  0
   18.0690  -17.0931    0.0000 O   0  0  0  0  0  0  0  0  0  0  0  0
  1  2  2  0  0  0  0
  2  3  1  0  0  0  0
  3  4  2  0  0  0  0
  4  5  1  0  0  0  0
  5  6  2  0  0  0  0
  1  6  1  0  0  0  0
  2  7  1  0  0  0  0
  4  8  1  0  0  0  0
  8  9  1  0  0  0  0
  9 10  1  0  0  0  0
  5 10  1  0  0  0  0
 10 11  1  0  0  0  0
M  END
> <DATABASE_ID>
DB09041

> <DATABASE_NAME>
drugbank

> <SMILES>
OB1OCC2=CC(F)=CC=C12

> <INCHI_IDENTIFIER>
InChI=1S/C7H6BFO2/c9-6-1-2-7-5(3-6)4-11-8(7)10/h1-3,10H,4H2

> <INCHI_KEY>
LFQDNHWZDQTITF-UHFFFAOYSA-N

> <FORMULA>
C7H6BFO2

> <MOLECULAR_WEIGHT>
151.93

> <EXACT_MASS>
152.044488

> <JCHEM_ACCEPTOR_COUNT>
2

> <JCHEM_ATOM_COUNT>
17

> <JCHEM_AVERAGE_POLARIZABILITY>
14.207719106662456

> <JCHEM_BIOAVAILABILITY>
1

> <JCHEM_DONOR_COUNT>
1

> <JCHEM_FORMAL_CHARGE>
0

> <JCHEM_GHOSE_FILTER>
0

> <JCHEM_IUPAC>
5-fluoro-1,3-dihydro-2,1-benzoxaborol-1-ol

> <ALOGPS_LOGP>
1.51

> <JCHEM_LOGP>
2.2371999999999996

> <ALOGPS_LOGS>
-1.13

> <JCHEM_MDDR_LIKE_RULE>
0

> <JCHEM_NUMBER_OF_RINGS>
2

> <JCHEM_PHYSIOLOGICAL_CHARGE>
0

> <JCHEM_PKA>
15.538352513154432

> <JCHEM_PKA_STRONGEST_ACIDIC>
8.914382285310808

> <JCHEM_PKA_STRONGEST_BASIC>
-4.835490669256251

> <JCHEM_POLAR_SURFACE_AREA>
29.46

> <JCHEM_REFRACTIVITY>
33.8568

> <JCHEM_ROTATABLE_BOND_COUNT>
0

> <JCHEM_RULE_OF_FIVE>
1

> <ALOGPS_SOLUBILITY>
1.13e+01 g/l

> <JCHEM_TRADITIONAL_IUPAC>
5-fluoro-3H-2,1-benzoxaborol-1-ol

> <JCHEM_VEBER_RULE>
1

> <DRUGBANK_ID>
DB09041

> <SECONDARY_ACCESSION_NUMBERS>
DB05058

> <DRUG_GROUPS>
approved; investigational

> <GENERIC_NAME>
Tavaborole

> <SYNONYMS>
5-Fluoro-1,3-dihydro-1-hydroxy-2,1-benzoxaborole; 5-Fluoro-2,1-benzoxaborol-1(3H)-ol; Tavaborole

> <PRODUCTS>
Kerydin

$$$$
54260
  -OEChem-10051722013D

 58 59  0     1  0  0  0  0  0999 V2000
   -4.7248   -1.6818   -0.1458 O   0  0  0  0  0  0  0  0  0  0  0  0
   -3.0740    0.6022    0.2461 N   0  0  0  0  0  0  0  0  0  0  0  0
   -1.8361    1.2527    0.6710 C   0  0  0  0  0  0  0  0  0  0  0  0
   -1.1611    2.0232   -0.4822 C   0  0  2  0  0  0  0  0  0  0  0  0
   -3.7172   -0.0830    1.3768 C   0  0  0  0  0  0  0  0  0  0  0  0
   -2.8138   -0.3560   -0.8383 C   0  0  0  0  0  0  0  0  0  0  0  0
   -5.0125   -0.7546    0.9067 C   0  0  2  0  0  0  0  0  0  0  0  0
   -4.1259   -1.0225   -1.2668 C   0  0  1  0  0  0  0  0  0  0  0  0
    0.1513    2.6930   -0.0157 C   0  0  0  0  0  0  0  0  0  0  0  0
    4.6623   -0.8988    0.2488 C   0  0  0  0  0  0  0  0  0  0  0  0
   -2.0935    3.0987   -1.0566 C   0  0  0  0  0  0  0  0  0  0  0  0
    1.3313    1.7539    0.0536 C   0  0  0  0  0  0  0  0  0  0  0  0
   -5.6706   -1.5298    2.0401 C   0  0  0  0  0  0  0  0  0  0  0  0
   -3.8821   -2.0700   -2.3445 C   0  0  0  0  0  0  0  0  0  0  0  0
    3.4972    0.0294    0.1806 C   0  0  0  0  0  0  0  0  0  0  0  0
    4.6184   -2.0231   -0.8579 C   0  0  0  0  0  0  0  0  0  0  0  0
    1.5871    1.0707    1.2317 C   0  0  0  0  0  0  0  0  0  0  0  0
    2.1368    1.5921   -1.0623 C   0  0  0  0  0  0  0  0  0  0  0  0
    4.8658   -1.6237    1.6240 C   0  0  0  0  0  0  0  0  0  0  0  0
    5.9929   -0.1069    0.0202 C   0  0  0  0  0  0  0  0  0  0  0  0
    2.6771    0.2027    1.2956 C   0  0  0  0  0  0  0  0  0  0  0  0
    3.2269    0.7241   -0.9984 C   0  0  0  0  0  0  0  0  0  0  0  0
    3.3645   -2.8923   -0.8266 C   0  0  0  0  0  0  0  0  0  0  0  0
   -1.1455    0.5052    1.0777 H   0  0  0  0  0  0  0  0  0  0  0  0
   -2.0577    1.9587    1.4819 H   0  0  0  0  0  0  0  0  0  0  0  0
   -0.8883    1.3473   -1.2996 H   0  0  0  0  0  0  0  0  0  0  0  0
   -3.9527    0.6388    2.1680 H   0  0  0  0  0  0  0  0  0  0  0  0
   -3.0373   -0.8360    1.7977 H   0  0  0  0  0  0  0  0  0  0  0  0
   -2.0936   -1.1170   -0.5090 H   0  0  0  0  0  0  0  0  0  0  0  0
   -2.4144    0.1315   -1.7314 H   0  0  0  0  0  0  0  0  0  0  0  0
   -5.7238   -0.0053    0.5351 H   0  0  0  0  0  0  0  0  0  0  0  0
   -4.8300   -0.2758   -1.6570 H   0  0  0  0  0  0  0  0  0  0  0  0
    0.0069    3.1802    0.9581 H   0  0  0  0  0  0  0  0  0  0  0  0
    0.4174    3.5100   -0.7007 H   0  0  0  0  0  0  0  0  0  0  0  0
   -3.0065    2.6630   -1.4741 H   0  0  0  0  0  0  0  0  0  0  0  0
   -1.6008    3.6478   -1.8665 H   0  0  0  0  0  0  0  0  0  0  0  0
   -2.3824    3.8220   -0.2864 H   0  0  0  0  0  0  0  0  0  0  0  0
   -5.0129   -2.3261    2.4057 H   0  0  0  0  0  0  0  0  0  0  0  0
   -5.9254   -0.8721    2.8766 H   0  0  0  0  0  0  0  0  0  0  0  0
   -6.5861   -2.0166    1.6870 H   0  0  0  0  0  0  0  0  0  0  0  0
   -4.8246   -2.5506   -2.6284 H   0  0  0  0  0  0  0  0  0  0  0  0
   -3.4344   -1.6257   -3.2386 H   0  0  0  0  0  0  0  0  0  0  0  0
   -3.2229   -2.8649   -1.9782 H   0  0  0  0  0  0  0  0  0  0  0  0
    5.4963   -2.6748   -0.7572 H   0  0  0  0  0  0  0  0  0  0  0  0
    4.6938   -1.5718   -1.8554 H   0  0  0  0  0  0  0  0  0  0  0  0
    0.9604    1.2043    2.1087 H   0  0  0  0  0  0  0  0  0  0  0  0
    1.9329    2.1264   -1.9858 H   0  0  0  0  0  0  0  0  0  0  0  0
    5.7286   -2.2998    1.5888 H   0  0  0  0  0  0  0  0  0  0  0  0
    3.9955   -2.2254    1.9062 H   0  0  0  0  0  0  0  0  0  0  0  0
    5.0559   -0.9042    2.4294 H   0  0  0  0  0  0  0  0  0  0  0  0
    6.0296    0.3545   -0.9729 H   0  0  0  0  0  0  0  0  0  0  0  0
    6.8667   -0.7635    0.1045 H   0  0  0  0  0  0  0  0  0  0  0  0
    6.1024    0.6949    0.7603 H   0  0  0  0  0  0  0  0  0  0  0  0
    2.8429   -0.3093    2.2370 H   0  0  0  0  0  0  0  0  0  0  0  0
    3.8482    0.6079   -1.8816 H   0  0  0  0  0  0  0  0  0  0  0  0
    3.2732   -3.4369    0.1170 H   0  0  0  0  0  0  0  0  0  0  0  0
    3.4105   -3.6348   -1.6304 H   0  0  0  0  0  0  0  0  0  0  0  0
    2.4561   -2.3019   -0.9766 H   0  0  0  0  0  0  0  0  0  0  0  0
  1  7  1  0  0  0  0
  1  8  1  0  0  0  0
  2  3  1  0  0  0  0
  2  5  1  0  0  0  0
  2  6  1  0  0  0  0
  3  4  1  0  0  0  0
  3 24  1  0  0  0  0
  3 25  1  0  0  0  0
  4  9  1  0  0  0  0
  4 11  1  0  0  0  0
  4 26  1  0  0  0  0
  5  7  1  0  0  0  0
  5 27  1  0  0  0  0
  5 28  1  0  0  0  0
  6  8  1  0  0  0  0
  6 29  1  0  0  0  0
  6 30  1  0  0  0  0
  7 13  1  0  0  0  0
  7 31  1  0  0  0  0
  8 14  1  0  0  0  0
  8 32  1  0  0  0  0
  9 12  1  0  0  0  0
  9 33  1  0  0  0  0
  9 34  1  0  0  0  0
 10 15  1  0  0  0  0
 10 16  1  0  0  0  0
 10 19  1  0  0  0  0
 10 20  1  0  0  0  0
 11 35  1  0  0  0  0
 11 36  1  0  0  0  0
 11 37  1  0  0  0  0
 12 17  2  0  0  0  0
 12 18  1  0  0  0  0
 13 38  1  0  0  0  0
 13 39  1  0  0  0  0
 13 40  1  0  0  0  0
 14 41  1  0  0  0  0
 14 42  1  0  0  0  0
 14 43  1  0  0  0  0
 15 21  2  0  0  0  0
 15 22  1  0  0  0  0
 16 23  1  0  0  0  0
 16 44  1  0  0  0  0
 16 45  1  0  0  0  0
 17 21  1  0  0  0  0
 17 46  1  0  0  0  0
 18 22  2  0  0  0  0
 18 47  1  0  0  0  0
 19 48  1  0  0  0  0
 19 49  1  0  0  0  0
 19 50  1  0  0  0  0
 20 51  1  0  0  0  0
 20 52  1  0  0  0  0
 20 53  1  0  0  0  0
 21 54  1  0  0  0  0
 22 55  1  0  0  0  0
 23 56  1  0  0  0  0
 23 57  1  0  0  0  0
 23 58  1  0  0  0  0
M  END
> <DATABASE_ID>
DB09056

> <DATABASE_NAME>
drugbank

> <ORIGINAL_SOURCE>
PUBCHEM

> <ORIGINAL_SOURCE_URL>
https://pubchem.ncbi.nlm.nih.gov/rest/pug/compound/inchikey/MQHLMHIZUIDKOO-AYHJJNSGSA-N/SDF?record_type=3d

> <SMILES>
[H]C(C)(CN1C[C@]([H])(C)O[C@]([H])(C)C1)CC1=CC=C(C=C1)C(C)(C)CC

> <INCHI_IDENTIFIER>
InChI=1S/C21H35NO/c1-7-21(5,6)20-10-8-19(9-11-20)12-16(2)13-22-14-17(3)23-18(4)15-22/h8-11,16-18H,7,12-15H2,1-6H3/t16?,17-,18+

> <INCHI_KEY>
MQHLMHIZUIDKOO-AYHJJNSGSA-N

> <FORMULA>
C21H35NO

> <MOLECULAR_WEIGHT>
317.517

> <EXACT_MASS>
317.271864751

> <JCHEM_ACCEPTOR_COUNT>
2

> <JCHEM_ATOM_COUNT>
58

> <JCHEM_AVERAGE_POLARIZABILITY>
40.22982056877301

> <JCHEM_BIOAVAILABILITY>
1

> <JCHEM_DONOR_COUNT>
0

> <JCHEM_FORMAL_CHARGE>
0

> <JCHEM_GHOSE_FILTER>
0

> <JCHEM_IUPAC>
(2R,6S)-2,6-dimethyl-4-(2-{[4-(2-methylbutan-2-yl)phenyl]methyl}propyl)morpholine

> <ALOGPS_LOGP>
5.44

> <JCHEM_LOGP>
5.617119812666667

> <ALOGPS_LOGS>
-5.61

> <JCHEM_MDDR_LIKE_RULE>
0

> <JCHEM_NUMBER_OF_RINGS>
2

> <JCHEM_PHYSIOLOGICAL_CHARGE>
1

> <JCHEM_PKA_STRONGEST_BASIC>
8.490758527201018

> <JCHEM_POLAR_SURFACE_AREA>
12.47

> <JCHEM_REFRACTIVITY>
99.60729999999998

> <JCHEM_ROTATABLE_BOND_COUNT>
6

> <JCHEM_RULE_OF_FIVE>
0

> <ALOGPS_SOLUBILITY>
7.85e-04 g/l

> <JCHEM_TRADITIONAL_IUPAC>
(2R,6S)-2,6-dimethyl-4-(2-{[4-(2-methylbutan-2-yl)phenyl]methyl}propyl)morpholine

> <JCHEM_VEBER_RULE>
1

$$$$
6918485
  -OEChem-12121822493D

 48 51  0     1  0  0  0  0  0999 V2000
    0.8700   -2.3018    2.1720 S   0  0  0  0  0  0  0  0  0  0  0  0
   -3.5901   -1.6254    1.5832 F   0  0  0  0  0  0  0  0  0  0  0  0
   -5.2083    0.2959   -3.2754 F   0  0  0  0  0  0  0  0  0  0  0  0
   -0.9237    0.3987   -1.0119 O   0  0  0  0  0  0  0  0  0  0  0  0
   -2.1189    1.8518    1.2285 N   0  0  0  0  0  0  0  0  0  0  0  0
    1.4192   -1.0320   -0.0117 N   0  0  0  0  0  0  0  0  0  0  0  0
   -1.3316    2.8639    0.8806 N   0  0  0  0  0  0  0  0  0  0  0  0
   -3.4812    3.5277    1.2950 N   0  0  0  0  0  0  0  0  0  0  0  0
    8.4374    1.5547   -1.5233 N   0  0  0  0  0  0  0  0  0  0  0  0
   -1.6502   -0.3345   -0.0158 C   0  0  1  0  0  0  0  0  0  0  0  0
   -0.9445   -1.7357    0.1749 C   0  0  1  0  0  0  0  0  0  0  0  0
   -1.5717    0.4935    1.3072 C   0  0  0  0  0  0  0  0  0  0  0  0
   -3.1117   -0.5099   -0.4569 C   0  0  0  0  0  0  0  0  0  0  0  0
   -0.9975   -2.6376   -1.0715 C   0  0  0  0  0  0  0  0  0  0  0  0
    0.5056   -1.6196    0.6707 C   0  0  0  0  0  0  0  0  0  0  0  0
   -3.9796   -1.1519    0.3912 C   0  0  0  0  0  0  0  0  0  0  0  0
   -3.4838   -0.0156   -1.6826 C   0  0  0  0  0  0  0  0  0  0  0  0
    2.5831   -1.1147    0.7276 C   0  0  0  0  0  0  0  0  0  0  0  0
   -4.8097   -0.1736   -2.0861 C   0  0  0  0  0  0  0  0  0  0  0  0
   -5.3055   -1.3096   -0.0124 C   0  0  0  0  0  0  0  0  0  0  0  0
   -3.3851    2.2308    1.4746 C   0  0  0  0  0  0  0  0  0  0  0  0
    2.4826   -1.7666    1.9388 C   0  0  0  0  0  0  0  0  0  0  0  0
   -5.7205   -0.8206   -1.2511 C   0  0  0  0  0  0  0  0  0  0  0  0
    3.8150   -0.5526    0.2543 C   0  0  0  0  0  0  0  0  0  0  0  0
   -2.2086    3.8685    0.9353 C   0  0  0  0  0  0  0  0  0  0  0  0
    5.0326   -1.1269    0.6229 C   0  0  0  0  0  0  0  0  0  0  0  0
    3.7981    0.5690   -0.5762 C   0  0  0  0  0  0  0  0  0  0  0  0
    6.2304   -0.5806    0.1623 C   0  0  0  0  0  0  0  0  0  0  0  0
    4.9962    1.1150   -1.0370 C   0  0  0  0  0  0  0  0  0  0  0  0
    6.2123    0.5402   -0.6676 C   0  0  0  0  0  0  0  0  0  0  0  0
    7.4395    1.0996   -1.1396 C   0  0  0  0  0  0  0  0  0  0  0  0
   -1.5034   -2.2842    0.9448 H   0  0  0  0  0  0  0  0  0  0  0  0
   -0.5263    0.6406    1.6058 H   0  0  0  0  0  0  0  0  0  0  0  0
   -2.0743    0.0021    2.1470 H   0  0  0  0  0  0  0  0  0  0  0  0
   -0.5008   -2.1637   -1.9251 H   0  0  0  0  0  0  0  0  0  0  0  0
   -2.0267   -2.8692   -1.3611 H   0  0  0  0  0  0  0  0  0  0  0  0
   -0.4892   -3.5905   -0.8837 H   0  0  0  0  0  0  0  0  0  0  0  0
   -1.2242    1.3227   -1.0126 H   0  0  0  0  0  0  0  0  0  0  0  0
   -2.8076    0.4864   -2.3648 H   0  0  0  0  0  0  0  0  0  0  0  0
   -6.0145   -1.8133    0.6381 H   0  0  0  0  0  0  0  0  0  0  0  0
   -4.1812    1.5667    1.7791 H   0  0  0  0  0  0  0  0  0  0  0  0
    3.2325   -1.9504    2.6957 H   0  0  0  0  0  0  0  0  0  0  0  0
   -6.7527   -0.9433   -1.5655 H   0  0  0  0  0  0  0  0  0  0  0  0
   -1.9114    4.8806    0.7049 H   0  0  0  0  0  0  0  0  0  0  0  0
    5.0873   -2.0108    1.2530 H   0  0  0  0  0  0  0  0  0  0  0  0
    2.8630    1.0376   -0.8738 H   0  0  0  0  0  0  0  0  0  0  0  0
    7.1706   -1.0419    0.4555 H   0  0  0  0  0  0  0  0  0  0  0  0
    4.9661    1.9896   -1.6824 H   0  0  0  0  0  0  0  0  0  0  0  0
  1 15  1  0  0  0  0
  1 22  1  0  0  0  0
  2 16  1  0  0  0  0
  3 19  1  0  0  0  0
  4 10  1  0  0  0  0
  4 38  1  0  0  0  0
  5  7  1  0  0  0  0
  5 12  1  0  0  0  0
  5 21  1  0  0  0  0
  6 15  2  0  0  0  0
  6 18  1  0  0  0  0
  7 25  2  0  0  0  0
  8 21  2  0  0  0  0
  8 25  1  0  0  0  0
  9 31  3  0  0  0  0
 10 11  1  0  0  0  0
 10 12  1  0  0  0  0
 10 13  1  0  0  0  0
 11 14  1  0  0  0  0
 11 15  1  0  0  0  0
 11 32  1  0  0  0  0
 12 33  1  0  0  0  0
 12 34  1  0  0  0  0
 13 16  2  0  0  0  0
 13 17  1  0  0  0  0
 14 35  1  0  0  0  0
 14 36  1  0  0  0  0
 14 37  1  0  0  0  0
 16 20  1  0  0  0  0
 17 19  2  0  0  0  0
 17 39  1  0  0  0  0
 18 22  2  0  0  0  0
 18 24  1  0  0  0  0
 19 23  1  0  0  0  0
 20 23  2  0  0  0  0
 20 40  1  0  0  0  0
 21 41  1  0  0  0  0
 22 42  1  0  0  0  0
 23 43  1  0  0  0  0
 24 26  2  0  0  0  0
 24 27  1  0  0  0  0
 25 44  1  0  0  0  0
 26 28  1  0  0  0  0
 26 45  1  0  0  0  0
 27 29  2  0  0  0  0
 27 46  1  0  0  0  0
 28 30  2  0  0  0  0
 28 47  1  0  0  0  0
 29 30  1  0  0  0  0
 29 48  1  0  0  0  0
 30 31  1  0  0  0  0
M  END
> <DATABASE_ID>
DB11633

> <DATABASE_NAME>
drugbank

> <ORIGINAL_SOURCE>
PUBCHEM

> <ORIGINAL_SOURCE_URL>
https://pubchem.ncbi.nlm.nih.gov/rest/pug/compound/inchikey/DDFOUSQFMYRUQK-RCDICMHDSA-N/SDF?record_type=3d

> <SMILES>
C[C@@H](C1=NC(=CS1)C1=CC=C(C=C1)C#N)[C@](O)(CN1C=NC=N1)C1=C(F)C=CC(F)=C1

> <INCHI_IDENTIFIER>
InChI=1S/C22H17F2N5OS/c1-14(21-28-20(10-31-21)16-4-2-15(9-25)3-5-16)22(30,11-29-13-26-12-27-29)18-8-17(23)6-7-19(18)24/h2-8,10,12-14,30H,11H2,1H3/t14-,22+/m0/s1

> <INCHI_KEY>
DDFOUSQFMYRUQK-RCDICMHDSA-N

> <FORMULA>
C22H17F2N5OS

> <MOLECULAR_WEIGHT>
437.47

> <EXACT_MASS>
437.112187687

> <JCHEM_ACCEPTOR_COUNT>
5

> <JCHEM_ATOM_COUNT>
48

> <JCHEM_AVERAGE_POLARIZABILITY>
42.74051045898345

> <JCHEM_BIOAVAILABILITY>
1

> <JCHEM_DONOR_COUNT>
1

> <JCHEM_FORMAL_CHARGE>
0

> <JCHEM_GHOSE_FILTER>
1

> <JCHEM_IUPAC>
4-{2-[(2R,3R)-3-(2,5-difluorophenyl)-3-hydroxy-4-(1H-1,2,4-triazol-1-yl)butan-2-yl]-1,3-thiazol-4-yl}benzonitrile

> <ALOGPS_LOGP>
3.46

> <JCHEM_LOGP>
4.143500234

> <ALOGPS_LOGS>
-4.43

> <JCHEM_MDDR_LIKE_RULE>
1

> <JCHEM_NUMBER_OF_RINGS>
4

> <JCHEM_PHYSIOLOGICAL_CHARGE>
0

> <JCHEM_PKA_STRONGEST_ACIDIC>
12.594493832783876

> <JCHEM_PKA_STRONGEST_BASIC>
2.3151066440715296

> <JCHEM_POLAR_SURFACE_AREA>
87.62

> <JCHEM_REFRACTIVITY>
123.94070000000002

> <JCHEM_ROTATABLE_BOND_COUNT>
6

> <JCHEM_RULE_OF_FIVE>
1

> <ALOGPS_SOLUBILITY>
1.62e-02 g/l

> <JCHEM_TRADITIONAL_IUPAC>
isavuconazole

> <JCHEM_VEBER_RULE>
0

$$$$
208952
  -OEChem-10051722403D

 46 49  0     1  0  0  0  0  0999 V2000
    7.6762    0.6450   -0.1946 Cl  0  0  0  0  0  0  0  0  0  0  0  0
   -2.1135   -0.8341    2.1104 F   0  0  0  0  0  0  0  0  0  0  0  0
   -6.4955   -1.5079    0.4572 F   0  0  0  0  0  0  0  0  0  0  0  0
   -0.8771   -0.0353   -1.8628 O   0  0  0  0  0  0  0  0  0  0  0  0
    1.4130   -0.3553    1.9488 O   0  0  0  0  0  0  0  0  0  0  0  0
    1.2399   -1.1579   -0.2332 N   0  0  0  0  0  0  0  0  0  0  0  0
   -1.4500    2.1949    0.0067 N   0  0  0  0  0  0  0  0  0  0  0  0
    3.1201   -1.1385   -1.6886 N   0  0  0  0  0  0  0  0  0  0  0  0
   -2.5482    2.4709    0.7024 N   0  0  0  0  0  0  0  0  0  0  0  0
   -2.1168    4.0353   -0.9098 N   0  0  0  0  0  0  0  0  0  0  0  0
   -1.0870   -0.2874   -0.4652 C   0  0  1  0  0  0  0  0  0  0  0  0
   -0.1668   -1.4966   -0.0831 C   0  0  1  0  0  0  0  0  0  0  0  0
   -0.6693    0.9942    0.3185 C   0  0  0  0  0  0  0  0  0  0  0  0
   -2.5629   -0.6217   -0.2110 C   0  0  0  0  0  0  0  0  0  0  0  0
   -0.4522   -2.7617   -0.8999 C   0  0  0  0  0  0  0  0  0  0  0  0
    1.9135   -0.5950    0.8542 C   0  0  0  0  0  0  0  0  0  0  0  0
   -2.9675   -0.8732    1.0778 C   0  0  0  0  0  0  0  0  0  0  0  0
   -3.4183   -0.6543   -1.2857 C   0  0  0  0  0  0  0  0  0  0  0  0
    1.8792   -1.3961   -1.4363 C   0  0  0  0  0  0  0  0  0  0  0  0
    3.3402   -0.2844    0.6053 C   0  0  0  0  0  0  0  0  0  0  0  0
    3.8828   -0.5691   -0.6551 C   0  0  0  0  0  0  0  0  0  0  0  0
   -4.3099   -1.1761    1.3058 C   0  0  0  0  0  0  0  0  0  0  0  0
   -4.7605   -0.9573   -1.0578 C   0  0  0  0  0  0  0  0  0  0  0  0
   -1.1873    3.1088   -0.9443 C   0  0  0  0  0  0  0  0  0  0  0  0
   -5.2064   -1.2181    0.2380 C   0  0  0  0  0  0  0  0  0  0  0  0
    4.1272    0.2827    1.6131 C   0  0  0  0  0  0  0  0  0  0  0  0
    5.2306   -0.2757   -0.8906 C   0  0  0  0  0  0  0  0  0  0  0  0
   -2.9216    3.6050    0.1059 C   0  0  0  0  0  0  0  0  0  0  0  0
    5.4684    0.5687    1.3618 C   0  0  0  0  0  0  0  0  0  0  0  0
    6.0195    0.2903    0.1123 C   0  0  0  0  0  0  0  0  0  0  0  0
   -0.3206   -1.7570    0.9707 H   0  0  0  0  0  0  0  0  0  0  0  0
    0.3553    1.2897    0.0656 H   0  0  0  0  0  0  0  0  0  0  0  0
   -0.7254    0.8698    1.4045 H   0  0  0  0  0  0  0  0  0  0  0  0
   -0.5759   -2.5806   -1.9722 H   0  0  0  0  0  0  0  0  0  0  0  0
    0.3199   -3.5263   -0.7547 H   0  0  0  0  0  0  0  0  0  0  0  0
   -1.3950   -3.2102   -0.5645 H   0  0  0  0  0  0  0  0  0  0  0  0
    0.0139    0.3362   -1.9745 H   0  0  0  0  0  0  0  0  0  0  0  0
   -3.1098   -0.4582   -2.3065 H   0  0  0  0  0  0  0  0  0  0  0  0
    1.2739   -1.8067   -2.2503 H   0  0  0  0  0  0  0  0  0  0  0  0
   -4.6570   -1.3786    2.3145 H   0  0  0  0  0  0  0  0  0  0  0  0
   -5.4594   -0.9900   -1.8885 H   0  0  0  0  0  0  0  0  0  0  0  0
   -0.3435    3.0692   -1.6188 H   0  0  0  0  0  0  0  0  0  0  0  0
    3.7156    0.5072    2.5930 H   0  0  0  0  0  0  0  0  0  0  0  0
    5.6623   -0.4926   -1.8659 H   0  0  0  0  0  0  0  0  0  0  0  0
   -3.8084    4.1343    0.4212 H   0  0  0  0  0  0  0  0  0  0  0  0
    6.0727    1.0094    2.1506 H   0  0  0  0  0  0  0  0  0  0  0  0
  1 30  1  0  0  0  0
  2 17  1  0  0  0  0
  3 25  1  0  0  0  0
  4 11  1  0  0  0  0
  4 37  1  0  0  0  0
  5 16  2  0  0  0  0
  6 12  1  0  0  0  0
  6 16  1  0  0  0  0
  6 19  1  0  0  0  0
  7  9  1  0  0  0  0
  7 13  1  0  0  0  0
  7 24  1  0  0  0  0
  8 19  2  0  0  0  0
  8 21  1  0  0  0  0
  9 28  2  0  0  0  0
 10 24  2  0  0  0  0
 10 28  1  0  0  0  0
 11 12  1  0  0  0  0
 11 13  1  0  0  0  0
 11 14  1  0  0  0  0
 12 15  1  0  0  0  0
 12 31  1  0  0  0  0
 13 32  1  0  0  0  0
 13 33  1  0  0  0  0
 14 17  2  0  0  0  0
 14 18  1  0  0  0  0
 15 34  1  0  0  0  0
 15 35  1  0  0  0  0
 15 36  1  0  0  0  0
 16 20  1  0  0  0  0
 17 22  1  0  0  0  0
 18 23  2  0  0  0  0
 18 38  1  0  0  0  0
 19 39  1  0  0  0  0
 20 21  2  0  0  0  0
 20 26  1  0  0  0  0
 21 27  1  0  0  0  0
 22 25  2  0  0  0  0
 22 40  1  0  0  0  0
 23 25  1  0  0  0  0
 23 41  1  0  0  0  0
 24 42  1  0  0  0  0
 26 29  2  0  0  0  0
 26 43  1  0  0  0  0
 27 30  2  0  0  0  0
 27 44  1  0  0  0  0
 28 45  1  0  0  0  0
 29 30  1  0  0  0  0
 29 46  1  0  0  0  0
M  END
> <DATABASE_ID>
DB12073

> <DATABASE_NAME>
drugbank

> <ORIGINAL_SOURCE>
PUBCHEM

> <ORIGINAL_SOURCE_URL>
https://pubchem.ncbi.nlm.nih.gov/rest/pug/compound/inchikey/UHIXWHUVLCAJQL-MPBGBICISA-N/SDF?record_type=3d

> <SMILES>
C[C@@H](N1C=NC2=CC(Cl)=CC=C2C1=O)[C@](O)(CN1C=NC=N1)C1=CC=C(F)C=C1F

> <INCHI_IDENTIFIER>
InChI=1S/C20H16ClF2N5O2/c1-12(28-11-25-18-6-13(21)2-4-15(18)19(28)29)20(30,8-27-10-24-9-26-27)16-5-3-14(22)7-17(16)23/h2-7,9-12,30H,8H2,1H3/t12-,20-/m1/s1

> <INCHI_KEY>
UHIXWHUVLCAJQL-MPBGBICISA-N

> <FORMULA>
C20H16ClF2N5O2

> <MOLECULAR_WEIGHT>
431.83

> <EXACT_MASS>
431.0960588

> <JCHEM_ACCEPTOR_COUNT>
5

> <JCHEM_ATOM_COUNT>
46

> <JCHEM_AVERAGE_POLARIZABILITY>
39.88596477175216

> <JCHEM_BIOAVAILABILITY>
1

> <JCHEM_DONOR_COUNT>
1

> <JCHEM_FORMAL_CHARGE>
0

> <JCHEM_GHOSE_FILTER>
1

> <JCHEM_IUPAC>
7-chloro-3-[(2R,3R)-3-(2,4-difluorophenyl)-3-hydroxy-4-(1H-1,2,4-triazol-1-yl)butan-2-yl]-3,4-dihydroquinazolin-4-one

> <ALOGPS_LOGP>
2.05

> <JCHEM_LOGP>
2.815409610333333

> <ALOGPS_LOGS>
-4.25

> <JCHEM_MDDR_LIKE_RULE>
0

> <JCHEM_NUMBER_OF_RINGS>
4

> <JCHEM_PHYSIOLOGICAL_CHARGE>
0

> <JCHEM_PKA_STRONGEST_ACIDIC>
12.597779326728752

> <JCHEM_PKA_STRONGEST_BASIC>
2.3815229959840614

> <JCHEM_POLAR_SURFACE_AREA>
83.60999999999999

> <JCHEM_REFRACTIVITY>
120.08369999999998

> <JCHEM_ROTATABLE_BOND_COUNT>
5

> <JCHEM_RULE_OF_FIVE>
1

> <ALOGPS_SOLUBILITY>
2.45e-02 g/l

> <JCHEM_TRADITIONAL_IUPAC>
albaconazole

> <JCHEM_VEBER_RULE>
0

$$$$
6303
  -OEChem-10051722413D

 31 33  0     1  0  0  0  0  0999 V2000
    2.1965    0.2856    0.9718 O   0  0  0  0  0  0  0  0  0  0  0  0
    1.2415   -2.5534   -0.9939 O   0  0  0  0  0  0  0  0  0  0  0  0
    4.1745    2.1904    0.3973 O   0  0  0  0  0  0  0  0  0  0  0  0
   -0.0195    0.1514    0.1438 N   0  0  0  0  0  0  0  0  0  0  0  0
   -1.3151    1.8574   -0.4728 N   0  0  0  0  0  0  0  0  0  0  0  0
   -1.7222   -1.5132    0.6236 N   0  0  0  0  0  0  0  0  0  0  0  0
   -3.9627   -0.6256    0.2376 N   0  0  0  0  0  0  0  0  0  0  0  0
   -4.3453    1.6120   -0.5198 N   0  0  0  0  0  0  0  0  0  0  0  0
    1.1958   -0.6022    0.4426 C   0  0  1  0  0  0  0  0  0  0  0  0
    1.8158   -1.2813   -0.7682 C   0  0  1  0  0  0  0  0  0  0  0  0
    3.2635   -1.3834   -0.3441 C   0  0  0  0  0  0  0  0  0  0  0  0
    3.4797   -0.0999    0.4426 C   0  0  1  0  0  0  0  0  0  0  0  0
    4.0156    1.0378   -0.4148 C   0  0  0  0  0  0  0  0  0  0  0  0
   -1.3059   -0.2973    0.2389 C   0  0  0  0  0  0  0  0  0  0  0  0
   -0.0767    1.4504   -0.2867 C   0  0  0  0  0  0  0  0  0  0  0  0
   -2.0936    0.7751   -0.1481 C   0  0  0  0  0  0  0  0  0  0  0  0
   -3.4709    0.5788   -0.1405 C   0  0  0  0  0  0  0  0  0  0  0  0
   -3.0709   -1.5827    0.5909 C   0  0  0  0  0  0  0  0  0  0  0  0
    0.9401   -1.3222    1.2300 H   0  0  0  0  0  0  0  0  0  0  0  0
    1.7243   -0.6772   -1.6785 H   0  0  0  0  0  0  0  0  0  0  0  0
    3.3995   -2.2542    0.3100 H   0  0  0  0  0  0  0  0  0  0  0  0
    3.9509   -1.5115   -1.1859 H   0  0  0  0  0  0  0  0  0  0  0  0
    4.1511   -0.2646    1.2926 H   0  0  0  0  0  0  0  0  0  0  0  0
    3.3277    1.2962   -1.2262 H   0  0  0  0  0  0  0  0  0  0  0  0
    4.9885    0.7838   -0.8459 H   0  0  0  0  0  0  0  0  0  0  0  0
    0.8075    2.0506   -0.4533 H   0  0  0  0  0  0  0  0  0  0  0  0
    0.2992   -2.4191   -1.1918 H   0  0  0  0  0  0  0  0  0  0  0  0
    3.3048    2.4020    0.7779 H   0  0  0  0  0  0  0  0  0  0  0  0
   -3.4995   -2.5340    0.8876 H   0  0  0  0  0  0  0  0  0  0  0  0
   -3.9808    2.5114   -0.8033 H   0  0  0  0  0  0  0  0  0  0  0  0
   -5.3422    1.4445   -0.5070 H   0  0  0  0  0  0  0  0  0  0  0  0
  1  9  1  0  0  0  0
  1 12  1  0  0  0  0
  2 10  1  0  0  0  0
  2 27  1  0  0  0  0
  3 13  1  0  0  0  0
  3 28  1  0  0  0  0
  4  9  1  0  0  0  0
  4 14  1  0  0  0  0
  4 15  1  0  0  0  0
  5 15  2  0  0  0  0
  5 16  1  0  0  0  0
  6 14  2  0  0  0  0
  6 18  1  0  0  0  0
  7 17  1  0  0  0  0
  7 18  2  0  0  0  0
  8 17  1  0  0  0  0
  8 30  1  0  0  0  0
  8 31  1  0  0  0  0
  9 10  1  0  0  0  0
  9 19  1  0  0  0  0
 10 11  1  0  0  0  0
 10 20  1  0  0  0  0
 11 12  1  0  0  0  0
 11 21  1  0  0  0  0
 11 22  1  0  0  0  0
 12 13  1  0  0  0  0
 12 23  1  0  0  0  0
 13 24  1  0  0  0  0
 13 25  1  0  0  0  0
 14 16  1  0  0  0  0
 15 26  1  0  0  0  0
 16 17  2  0  0  0  0
 18 29  1  0  0  0  0
M  END
> <DATABASE_ID>
DB12156

> <DATABASE_NAME>
drugbank

> <ORIGINAL_SOURCE>
PUBCHEM

> <ORIGINAL_SOURCE_URL>
https://pubchem.ncbi.nlm.nih.gov/rest/pug/compound/inchikey/OFEZSBMBBKLLBJ-BAJZRUMYSA-N/SDF?record_type=3d

> <SMILES>
[H][C@@]1(CO)C[C@@]([H])(O)[C@@]([H])(O1)N1C=NC2=C(N)N=CN=C12

> <INCHI_IDENTIFIER>
InChI=1S/C10H13N5O3/c11-8-7-9(13-3-12-8)15(4-14-7)10-6(17)1-5(2-16)18-10/h3-6,10,16-17H,1-2H2,(H2,11,12,13)/t5-,6+,10+/m0/s1

> <INCHI_KEY>
OFEZSBMBBKLLBJ-BAJZRUMYSA-N

> <FORMULA>
C10H13N5O3

> <MOLECULAR_WEIGHT>
251.2419

> <EXACT_MASS>
251.101839307

> <JCHEM_ACCEPTOR_COUNT>
7

> <JCHEM_AVERAGE_POLARIZABILITY>
24.14563025412037

> <JCHEM_BIOAVAILABILITY>
1

> <JCHEM_DONOR_COUNT>
3

> <JCHEM_FORMAL_CHARGE>
0

> <JCHEM_GHOSE_FILTER>
0

> <JCHEM_IUPAC>
(2R,3R,5S)-2-(6-amino-9H-purin-9-yl)-5-(hydroxymethyl)oxolan-3-ol

> <ALOGPS_LOGP>
-0.85

> <JCHEM_LOGP>
-1.4006691906666668

> <ALOGPS_LOGS>
-1.35

> <JCHEM_MDDR_LIKE_RULE>
0

> <JCHEM_NUMBER_OF_RINGS>
3

> <JCHEM_PHYSIOLOGICAL_CHARGE>
0

> <JCHEM_PKA>
14.706912091159193

> <JCHEM_PKA_STRONGEST_ACIDIC>
13.52749509396719

> <JCHEM_PKA_STRONGEST_BASIC>
4.988857701284418

> <JCHEM_POLAR_SURFACE_AREA>
119.31000000000002

> <JCHEM_REFRACTIVITY>
62.0985

> <JCHEM_ROTATABLE_BOND_COUNT>
2

> <JCHEM_RULE_OF_FIVE>
1

> <ALOGPS_SOLUBILITY>
1.13e+01 g/l

> <JCHEM_TRADITIONAL_IUPAC>
cordycepin

> <JCHEM_VEBER_RULE>
0

$$$$
456557
  -OEChem-10051722553D

 60 62  0     1  0  0  0  0  0999 V2000
    2.9556   -0.5116   -1.5224 O   0  0  0  0  0  0  0  0  0  0  0  0
    2.1763   -3.3733   -1.0836 O   0  0  0  0  0  0  0  0  0  0  0  0
    4.0995   -2.9831    0.8105 O   0  0  0  0  0  0  0  0  0  0  0  0
   -0.4892    1.6693   -1.3861 O   0  0  0  0  0  0  0  0  0  0  0  0
    1.7435    1.9097   -1.6538 O   0  0  0  0  0  0  0  0  0  0  0  0
   -0.3817    0.9269    2.0802 O   0  0  0  0  0  0  0  0  0  0  0  0
   -4.6631   -1.9362    1.2137 O   0  0  0  0  0  0  0  0  0  0  0  0
    6.7338   -0.9671   -1.5146 O   0  0  0  0  0  0  0  0  0  0  0  0
    7.3950    2.8317    1.0107 O   0  0  0  0  0  0  0  0  0  0  0  0
   -8.7354    0.9342   -2.3913 O   0  0  0  0  0  0  0  0  0  0  0  0
    4.9195   -0.1047   -0.3214 N   0  0  0  0  0  0  0  0  0  0  0  0
   -0.3040   -0.4183    0.1928 N   0  0  0  0  0  0  0  0  0  0  0  0
   -2.3435   -0.7410    3.1153 N   0  0  0  0  0  0  0  0  0  0  0  0
    7.0612    0.9242   -0.2558 N   0  0  0  0  0  0  0  0  0  0  0  0
   -5.6172   -0.3297   -0.9891 N   0  0  0  0  0  0  0  0  0  0  0  0
    1.6878   -1.0375   -1.0723 C   0  0  1  0  0  0  0  0  0  0  0  0
    2.0198   -2.2513   -0.2152 C   0  0  2  0  0  0  0  0  0  0  0  0
    3.3542   -1.8610    0.3842 C   0  0  2  0  0  0  0  0  0  0  0  0
    4.0143   -1.1246   -0.7687 C   0  0  1  0  0  0  0  0  0  0  0  0
    0.9638    0.0611   -0.3055 C   0  0  1  0  0  0  0  0  0  0  0  0
   -2.2183   -0.6119    1.6635 C   0  0  1  0  0  0  0  0  0  0  0  0
    0.7955    1.2931   -1.1790 C   0  0  0  0  0  0  0  0  0  0  0  0
   -3.4036    0.1583    1.0143 C   0  0  1  0  0  0  0  0  0  0  0  0
   -0.8793    0.0622    1.3617 C   0  0  0  0  0  0  0  0  0  0  0  0
    6.2663   -0.1166   -0.7542 C   0  0  0  0  0  0  0  0  0  0  0  0
    4.4714    0.8932    0.5363 C   0  0  0  0  0  0  0  0  0  0  0  0
   -4.7793   -0.5129    1.2944 C   0  0  1  0  0  0  0  0  0  0  0  0
   -3.4290    1.6375    1.4468 C   0  0  0  0  0  0  0  0  0  0  0  0
    5.2410    1.8788    1.0028 C   0  0  0  0  0  0  0  0  0  0  0  0
   -5.8669   -0.1117    0.3216 C   0  0  0  0  0  0  0  0  0  0  0  0
    6.6604    1.9387    0.5994 C   0  0  0  0  0  0  0  0  0  0  0  0
   -7.0393    0.4460    0.8055 C   0  0  0  0  0  0  0  0  0  0  0  0
   -8.0186    0.8030   -0.1148 C   0  0  0  0  0  0  0  0  0  0  0  0
   -6.5921    0.0300   -1.8539 C   0  0  0  0  0  0  0  0  0  0  0  0
   -7.7986    0.5943   -1.4718 C   0  0  0  0  0  0  0  0  0  0  0  0
    1.1189   -1.3147   -1.9683 H   0  0  0  0  0  0  0  0  0  0  0  0
    1.2736   -2.5203    0.5372 H   0  0  0  0  0  0  0  0  0  0  0  0
    3.1804   -1.2317    1.2619 H   0  0  0  0  0  0  0  0  0  0  0  0
    4.5264   -1.8280   -1.4350 H   0  0  0  0  0  0  0  0  0  0  0  0
    1.5298    0.3964    0.5638 H   0  0  0  0  0  0  0  0  0  0  0  0
   -0.8266   -1.0718   -0.3836 H   0  0  0  0  0  0  0  0  0  0  0  0
    1.3043   -3.5670   -1.4681 H   0  0  0  0  0  0  0  0  0  0  0  0
   -2.1834   -1.6274    1.2490 H   0  0  0  0  0  0  0  0  0  0  0  0
   -3.2187    0.1450   -0.0690 H   0  0  0  0  0  0  0  0  0  0  0  0
    3.5554   -3.4694    1.4531 H   0  0  0  0  0  0  0  0  0  0  0  0
    3.4384    0.8701    0.8384 H   0  0  0  0  0  0  0  0  0  0  0  0
   -5.0893   -0.2847    2.3216 H   0  0  0  0  0  0  0  0  0  0  0  0
   -4.2662    2.1652    0.9778 H   0  0  0  0  0  0  0  0  0  0  0  0
   -2.5190    2.1621    1.1410 H   0  0  0  0  0  0  0  0  0  0  0  0
   -3.5379    1.7382    2.5314 H   0  0  0  0  0  0  0  0  0  0  0  0
   -3.2023   -1.2388    3.3450 H   0  0  0  0  0  0  0  0  0  0  0  0
   -1.5818   -1.3162    3.4739 H   0  0  0  0  0  0  0  0  0  0  0  0
    8.0326    0.9353   -0.5537 H   0  0  0  0  0  0  0  0  0  0  0  0
    4.8563    2.6411    1.6690 H   0  0  0  0  0  0  0  0  0  0  0  0
   -0.5510    2.4703   -1.9487 H   0  0  0  0  0  0  0  0  0  0  0  0
   -5.5540   -2.3190    1.2897 H   0  0  0  0  0  0  0  0  0  0  0  0
   -7.2040    0.6064    1.8655 H   0  0  0  0  0  0  0  0  0  0  0  0
   -8.9478    1.2428    0.2367 H   0  0  0  0  0  0  0  0  0  0  0  0
   -6.3663   -0.1551   -2.8994 H   0  0  0  0  0  0  0  0  0  0  0  0
   -9.5045    1.3120   -1.9310 H   0  0  0  0  0  0  0  0  0  0  0  0
  1 16  1  0  0  0  0
  1 19  1  0  0  0  0
  2 17  1  0  0  0  0
  2 42  1  0  0  0  0
  3 18  1  0  0  0  0
  3 45  1  0  0  0  0
  4 22  1  0  0  0  0
  4 55  1  0  0  0  0
  5 22  2  0  0  0  0
  6 24  2  0  0  0  0
  7 27  1  0  0  0  0
  7 56  1  0  0  0  0
  8 25  2  0  0  0  0
  9 31  2  0  0  0  0
 10 35  1  0  0  0  0
 10 60  1  0  0  0  0
 11 19  1  0  0  0  0
 11 25  1  0  0  0  0
 11 26  1  0  0  0  0
 12 20  1  0  0  0  0
 12 24  1  0  0  0  0
 12 41  1  0  0  0  0
 13 21  1  0  0  0  0
 13 51  1  0  0  0  0
 13 52  1  0  0  0  0
 14 25  1  0  0  0  0
 14 31  1  0  0  0  0
 14 53  1  0  0  0  0
 15 30  2  0  0  0  0
 15 34  1  0  0  0  0
 16 17  1  0  0  0  0
 16 20  1  0  0  0  0
 16 36  1  0  0  0  0
 17 18  1  0  0  0  0
 17 37  1  0  0  0  0
 18 19  1  0  0  0  0
 18 38  1  0  0  0  0
 19 39  1  0  0  0  0
 20 22  1  0  0  0  0
 20 40  1  0  0  0  0
 21 23  1  0  0  0  0
 21 24  1  0  0  0  0
 21 43  1  0  0  0  0
 23 27  1  0  0  0  0
 23 28  1  0  0  0  0
 23 44  1  0  0  0  0
 26 29  2  0  0  0  0
 26 46  1  0  0  0  0
 27 30  1  0  0  0  0
 27 47  1  0  0  0  0
 28 48  1  0  0  0  0
 28 49  1  0  0  0  0
 28 50  1  0  0  0  0
 29 31  1  0  0  0  0
 29 54  1  0  0  0  0
 30 32  1  0  0  0  0
 32 33  2  0  0  0  0
 32 57  1  0  0  0  0
 33 35  1  0  0  0  0
 33 58  1  0  0  0  0
 34 35  2  0  0  0  0
 34 59  1  0  0  0  0
M  END
> <DATABASE_ID>
DB12939

> <DATABASE_NAME>
drugbank

> <ORIGINAL_SOURCE>
PUBCHEM

> <ORIGINAL_SOURCE_URL>
https://pubchem.ncbi.nlm.nih.gov/rest/pug/compound/inchikey/WWJFFVUVFNBJTN-VHDFTHOZSA-N/SDF?record_type=3d

> <SMILES>
C[C@@H]([C@H](N)C(=O)N[C@@H]([C@H]1O[C@H]([C@H](O)[C@@H]1O)N1C=CC(=O)NC1=O)C(O)=O)[C@H](O)C1=CC=C(O)C=N1

> <INCHI_IDENTIFIER>
InChI=1S/C20H25N5O10/c1-7(13(28)9-3-2-8(26)6-22-9)11(21)17(31)24-12(19(32)33)16-14(29)15(30)18(35-16)25-5-4-10(27)23-20(25)34/h2-7,11-16,18,26,28-30H,21H2,1H3,(H,24,31)(H,32,33)(H,23,27,34)/t7-,11-,12-,13-,14-,15+,16+,18+/m0/s1

> <INCHI_KEY>
WWJFFVUVFNBJTN-VHDFTHOZSA-N

> <FORMULA>
C20H25N5O10

> <MOLECULAR_WEIGHT>
495.445

> <EXACT_MASS>
495.160142025

> <JCHEM_ACCEPTOR_COUNT>
12

> <JCHEM_ATOM_COUNT>
60

> <JCHEM_AVERAGE_POLARIZABILITY>
46.27074907662167

> <JCHEM_BIOAVAILABILITY>
0

> <JCHEM_DONOR_COUNT>
8

> <JCHEM_FORMAL_CHARGE>
0

> <JCHEM_GHOSE_FILTER>
0

> <JCHEM_IUPAC>
(2S)-2-[(2S,3S,4S)-2-amino-4-hydroxy-4-(5-hydroxypyridin-2-yl)-3-methylbutanamido]-2-[(2R,3S,4R,5R)-5-(2,4-dioxo-1,2,3,4-tetrahydropyrimidin-1-yl)-3,4-dihydroxyoxolan-2-yl]acetic acid

> <ALOGPS_LOGP>
-1.21

> <JCHEM_LOGP>
-5.649640293748052

> <ALOGPS_LOGS>
-2.04

> <JCHEM_MDDR_LIKE_RULE>
1

> <JCHEM_NUMBER_OF_RINGS>
3

> <JCHEM_PHYSIOLOGICAL_CHARGE>
0

> <JCHEM_PKA>
8.762563337801057

> <JCHEM_PKA_STRONGEST_ACIDIC>
2.6059540645366353

> <JCHEM_PKA_STRONGEST_BASIC>
7.7681436275681355

> <JCHEM_POLAR_SURFACE_AREA>
244.86999999999998

> <JCHEM_REFRACTIVITY>
111.83559999999997

> <JCHEM_ROTATABLE_BOND_COUNT>
8

> <JCHEM_RULE_OF_FIVE>
0

> <ALOGPS_SOLUBILITY>
4.47e+00 g/l

> <JCHEM_TRADITIONAL_IUPAC>
nikkomycin

> <JCHEM_VEBER_RULE>
0

$$$$
92169693
  -OEChem-10061700203D

 44 47  0     1  0  0  0  0  0999 V2000
    1.4812   -3.8388   -0.9875 S   0  0  0  0  0  0  0  0  0  0  0  0
    0.7438   -1.3580   -1.4381 O   0  0  0  0  0  0  0  0  0  0  0  0
    1.9745   -1.6473    0.6275 N   0  0  0  0  0  0  0  0  0  0  0  0
   -3.4400   -0.4586    1.1672 C   0  0  1  0  0  0  0  0  0  0  0  0
   -3.7969    1.5254    0.1157 C   0  0  2  0  0  0  0  0  0  0  0  0
   -3.6475    1.0167    1.5631 C   0  0  0  0  0  0  0  0  0  0  0  0
   -4.7150   -0.7164    0.3380 C   0  0  0  0  0  0  0  0  0  0  0  0
   -4.9594    0.6415   -0.3819 C   0  0  0  0  0  0  0  0  0  0  0  0
   -2.2971   -0.2697    0.1990 C   0  0  0  0  0  0  0  0  0  0  0  0
   -2.5180    0.9582   -0.4517 C   0  0  0  0  0  0  0  0  0  0  0  0
   -1.2188   -1.0687   -0.1120 C   0  0  0  0  0  0  0  0  0  0  0  0
   -1.6664    1.4206   -1.4310 C   0  0  0  0  0  0  0  0  0  0  0  0
   -0.3420   -0.6067   -1.0973 C   0  0  0  0  0  0  0  0  0  0  0  0
   -0.5632    0.6237   -1.7493 C   0  0  0  0  0  0  0  0  0  0  0  0
    1.4189   -2.2285   -0.5249 C   0  0  0  0  0  0  0  0  0  0  0  0
    2.4578   -0.2851    0.6477 C   0  0  0  0  0  0  0  0  0  0  0  0
    2.0166   -2.3924    1.8921 C   0  0  0  0  0  0  0  0  0  0  0  0
    2.9706    0.2913   -0.5146 C   0  0  0  0  0  0  0  0  0  0  0  0
    2.4114    0.4533    1.8303 C   0  0  0  0  0  0  0  0  0  0  0  0
    3.4368    1.6057   -0.4942 C   0  0  0  0  0  0  0  0  0  0  0  0
    2.8774    1.7679    1.8505 C   0  0  0  0  0  0  0  0  0  0  0  0
    3.3902    2.3441    0.6883 C   0  0  0  0  0  0  0  0  0  0  0  0
    3.9850    2.2217   -1.7367 C   0  0  0  0  0  0  0  0  0  0  0  0
   -3.2466   -1.1489    1.9889 H   0  0  0  0  0  0  0  0  0  0  0  0
   -3.9217    2.6026    0.0006 H   0  0  0  0  0  0  0  0  0  0  0  0
   -2.7829    1.4483    2.0843 H   0  0  0  0  0  0  0  0  0  0  0  0
   -4.5469    1.1758    2.1687 H   0  0  0  0  0  0  0  0  0  0  0  0
   -5.5644   -0.9484    0.9902 H   0  0  0  0  0  0  0  0  0  0  0  0
   -4.5955   -1.5350   -0.3800 H   0  0  0  0  0  0  0  0  0  0  0  0
   -4.9657    0.5227   -1.4708 H   0  0  0  0  0  0  0  0  0  0  0  0
   -5.9252    1.0566   -0.0727 H   0  0  0  0  0  0  0  0  0  0  0  0
   -1.0828   -2.0183    0.3918 H   0  0  0  0  0  0  0  0  0  0  0  0
   -1.8404    2.3619   -1.9386 H   0  0  0  0  0  0  0  0  0  0  0  0
    0.1320    0.9596   -2.5152 H   0  0  0  0  0  0  0  0  0  0  0  0
    2.9890   -2.2525    2.3750 H   0  0  0  0  0  0  0  0  0  0  0  0
    1.8617   -3.4632    1.7457 H   0  0  0  0  0  0  0  0  0  0  0  0
    1.2097   -2.0365    2.5405 H   0  0  0  0  0  0  0  0  0  0  0  0
    3.0472   -0.2766   -1.4382 H   0  0  0  0  0  0  0  0  0  0  0  0
    2.0066    0.0482    2.7525 H   0  0  0  0  0  0  0  0  0  0  0  0
    2.8382    2.3443    2.7703 H   0  0  0  0  0  0  0  0  0  0  0  0
    3.7510    3.3688    0.7181 H   0  0  0  0  0  0  0  0  0  0  0  0
    5.0337    1.9366   -1.8665 H   0  0  0  0  0  0  0  0  0  0  0  0
    3.4183    1.8968   -2.6160 H   0  0  0  0  0  0  0  0  0  0  0  0
    3.9236    3.3147   -1.7020 H   0  0  0  0  0  0  0  0  0  0  0  0
  1 15  2  0  0  0  0
  2 13  1  0  0  0  0
  2 15  1  0  0  0  0
  3 15  1  0  0  0  0
  3 16  1  0  0  0  0
  3 17  1  0  0  0  0
  4  6  1  0  0  0  0
  4  7  1  0  0  0  0
  4  9  1  0  0  0  0
  4 24  1  0  0  0  0
  5  6  1  0  0  0  0
  5  8  1  0  0  0  0
  5 10  1  0  0  0  0
  5 25  1  0  0  0  0
  6 26  1  0  0  0  0
  6 27  1  0  0  0  0
  7  8  1  0  0  0  0
  7 28  1  0  0  0  0
  7 29  1  0  0  0  0
  8 30  1  0  0  0  0
  8 31  1  0  0  0  0
  9 10  2  0  0  0  0
  9 11  1  0  0  0  0
 10 12  1  0  0  0  0
 11 13  2  0  0  0  0
 11 32  1  0  0  0  0
 12 14  2  0  0  0  0
 12 33  1  0  0  0  0
 13 14  1  0  0  0  0
 14 34  1  0  0  0  0
 16 18  1  0  0  0  0
 16 19  2  0  0  0  0
 17 35  1  0  0  0  0
 17 36  1  0  0  0  0
 17 37  1  0  0  0  0
 18 20  2  0  0  0  0
 18 38  1  0  0  0  0
 19 21  1  0  0  0  0
 19 39  1  0  0  0  0
 20 22  1  0  0  0  0
 20 23  1  0  0  0  0
 21 22  2  0  0  0  0
 21 40  1  0  0  0  0
 22 41  1  0  0  0  0
 23 42  1  0  0  0  0
 23 43  1  0  0  0  0
 23 44  1  0  0  0  0
M  END
> <DATABASE_ID>
DB13360

> <DATABASE_NAME>
drugbank

> <ORIGINAL_SOURCE>
PUBCHEM

> <ORIGINAL_SOURCE_URL>
https://pubchem.ncbi.nlm.nih.gov/rest/pug/compound/inchikey/CANCCLAKQQHLNK-LSDHHAIUSA-N/SDF?record_type=3d

> <SMILES>
CN(C(=S)OC1=CC=C2[C@H]3CC[C@H](C3)C2=C1)C1=CC(C)=CC=C1

> <INCHI_IDENTIFIER>
InChI=1S/C20H21NOS/c1-13-4-3-5-16(10-13)21(2)20(23)22-17-8-9-18-14-6-7-15(11-14)19(18)12-17/h3-5,8-10,12,14-15H,6-7,11H2,1-2H3/t14-,15+/m0/s1

> <INCHI_KEY>
CANCCLAKQQHLNK-LSDHHAIUSA-N

> <FORMULA>
C20H21NOS

> <MOLECULAR_WEIGHT>
323.45

> <EXACT_MASS>
323.134385474

> <JCHEM_ACCEPTOR_COUNT>
1

> <JCHEM_ATOM_COUNT>
44

> <JCHEM_AVERAGE_POLARIZABILITY>
36.50557018472654

> <JCHEM_BIOAVAILABILITY>
1

> <JCHEM_DONOR_COUNT>
0

> <JCHEM_FORMAL_CHARGE>
0

> <JCHEM_GHOSE_FILTER>
0

> <JCHEM_IUPAC>
N-methyl-N-(3-methylphenyl)-1-[(1R,8S)-tricyclo[6.2.1.0^{2,7}]undeca-2,4,6-trien-4-yloxy]methanethioamide

> <ALOGPS_LOGP>
5.38

> <JCHEM_LOGP>
5.8735606413333326

> <ALOGPS_LOGS>
-5.94

> <JCHEM_MDDR_LIKE_RULE>
0

> <JCHEM_NUMBER_OF_RINGS>
4

> <JCHEM_PHYSIOLOGICAL_CHARGE>
0

> <JCHEM_PKA_STRONGEST_BASIC>
0.07639377484912035

> <JCHEM_POLAR_SURFACE_AREA>
12.47

> <JCHEM_REFRACTIVITY>
98.64639999999999

> <JCHEM_ROTATABLE_BOND_COUNT>
3

> <JCHEM_RULE_OF_FIVE>
0

> <ALOGPS_SOLUBILITY>
3.73e-04 g/l

> <JCHEM_TRADITIONAL_IUPAC>
N-methyl-N-(3-methylphenyl)-1-[(1R,8S)-tricyclo[6.2.1.0^{2,7}]undeca-2,4,6-trien-4-yloxy]methanethioamide

> <JCHEM_VEBER_RULE>
1

$$$$
3401
  -OEChem-10061700223D

 42 45  0     1  0  0  0  0  0999 V2000
    0.3985   -0.6795    2.4303 F   0  0  0  0  0  0  0  0  0  0  0  0
    4.9491    1.8574    0.2885 F   0  0  0  0  0  0  0  0  0  0  0  0
   -0.7599    0.0447   -1.6846 N   0  0  0  0  0  0  0  0  0  0  0  0
   -1.9719   -0.2694   -3.4119 N   0  0  0  0  0  0  0  0  0  0  0  0
   -0.3377    0.0161   -0.2081 C   0  0  2  0  0  0  0  0  0  0  0  0
    1.1737    0.5426   -0.0660 C   0  0  0  0  0  0  0  0  0  0  0  0
   -0.1169   -1.5040    0.2636 C   0  0  0  0  0  0  0  0  0  0  0  0
   -1.3955    0.7966    0.4966 C   0  0  0  0  0  0  0  0  0  0  0  0
    1.3385    1.6441    0.6802 C   0  0  0  0  0  0  0  0  0  0  0  0
    2.1036   -0.1781   -0.7093 C   0  0  0  0  0  0  0  0  0  0  0  0
    0.2303   -1.6738    1.5475 C   0  0  0  0  0  0  0  0  0  0  0  0
   -0.3043   -2.4369   -0.6817 C   0  0  0  0  0  0  0  0  0  0  0  0
   -0.0103    0.5571   -2.6333 C   0  0  0  0  0  0  0  0  0  0  0  0
   -1.5979    2.1401    0.1805 C   0  0  0  0  0  0  0  0  0  0  0  0
   -2.1825    0.1832    1.4712 C   0  0  0  0  0  0  0  0  0  0  0  0
   -1.9037   -0.4420   -2.1105 C   0  0  0  0  0  0  0  0  0  0  0  0
   -0.7943    0.3524   -3.7442 C   0  0  0  0  0  0  0  0  0  0  0  0
    2.6507    2.1009    0.8035 C   0  0  0  0  0  0  0  0  0  0  0  0
    3.4158    0.2785   -0.5861 C   0  0  0  0  0  0  0  0  0  0  0  0
    0.4215   -2.9947    1.9536 C   0  0  0  0  0  0  0  0  0  0  0  0
   -0.1129   -3.7575   -0.2755 C   0  0  0  0  0  0  0  0  0  0  0  0
   -2.5873    2.8702    0.8393 C   0  0  0  0  0  0  0  0  0  0  0  0
   -3.1719    0.9134    2.1298 C   0  0  0  0  0  0  0  0  0  0  0  0
    3.6894    1.4182    0.1705 C   0  0  0  0  0  0  0  0  0  0  0  0
    0.2500   -4.0364    1.0419 C   0  0  0  0  0  0  0  0  0  0  0  0
   -3.3742    2.2568    1.8138 C   0  0  0  0  0  0  0  0  0  0  0  0
    0.5901    2.1778    1.2433 H   0  0  0  0  0  0  0  0  0  0  0  0
    1.9283   -1.0542   -1.3195 H   0  0  0  0  0  0  0  0  0  0  0  0
   -0.5087   -2.3138   -1.7316 H   0  0  0  0  0  0  0  0  0  0  0  0
    0.9367    1.0693   -2.5595 H   0  0  0  0  0  0  0  0  0  0  0  0
   -1.0135    2.6424   -0.5860 H   0  0  0  0  0  0  0  0  0  0  0  0
   -2.1216   -0.8673    1.7261 H   0  0  0  0  0  0  0  0  0  0  0  0
   -2.6768   -0.9009   -1.5078 H   0  0  0  0  0  0  0  0  0  0  0  0
   -0.5778    0.6352   -4.7640 H   0  0  0  0  0  0  0  0  0  0  0  0
    2.8669    2.9803    1.4033 H   0  0  0  0  0  0  0  0  0  0  0  0
    4.2245   -0.2500   -1.0823 H   0  0  0  0  0  0  0  0  0  0  0  0
    0.7052   -3.2114    2.9793 H   0  0  0  0  0  0  0  0  0  0  0  0
   -0.2293   -4.5689   -0.9884 H   0  0  0  0  0  0  0  0  0  0  0  0
   -2.7480    3.9150    0.5901 H   0  0  0  0  0  0  0  0  0  0  0  0
   -3.7944    0.4332    2.8793 H   0  0  0  0  0  0  0  0  0  0  0  0
    0.4030   -5.0644    1.3571 H   0  0  0  0  0  0  0  0  0  0  0  0
   -4.1473    2.8242    2.3238 H   0  0  0  0  0  0  0  0  0  0  0  0
  1 11  1  0  0  0  0
  2 24  1  0  0  0  0
  3  5  1  0  0  0  0
  3 13  1  0  0  0  0
  3 16  1  0  0  0  0
  4 16  2  0  0  0  0
  4 17  1  0  0  0  0
  5  6  1  0  0  0  0
  5  7  1  0  0  0  0
  5  8  1  0  0  0  0
  6  9  2  0  0  0  0
  6 10  1  0  0  0  0
  7 11  1  0  0  0  0
  7 12  2  0  0  0  0
  8 14  2  0  0  0  0
  8 15  1  0  0  0  0
  9 18  1  0  0  0  0
  9 27  1  0  0  0  0
 10 19  2  0  0  0  0
 10 28  1  0  0  0  0
 11 20  2  0  0  0  0
 12 21  1  0  0  0  0
 12 29  1  0  0  0  0
 13 17  2  0  0  0  0
 13 30  1  0  0  0  0
 14 22  1  0  0  0  0
 14 31  1  0  0  0  0
 15 23  2  0  0  0  0
 15 32  1  0  0  0  0
 16 33  1  0  0  0  0
 17 34  1  0  0  0  0
 18 24  2  0  0  0  0
 18 35  1  0  0  0  0
 19 24  1  0  0  0  0
 19 36  1  0  0  0  0
 20 25  1  0  0  0  0
 20 37  1  0  0  0  0
 21 25  2  0  0  0  0
 21 38  1  0  0  0  0
 22 26  2  0  0  0  0
 22 39  1  0  0  0  0
 23 26  1  0  0  0  0
 23 40  1  0  0  0  0
 25 41  1  0  0  0  0
 26 42  1  0  0  0  0
M  END
> <DATABASE_ID>
DB13425

> <DATABASE_NAME>
drugbank

> <ORIGINAL_SOURCE>
PUBCHEM

> <ORIGINAL_SOURCE_URL>
https://pubchem.ncbi.nlm.nih.gov/rest/pug/compound/inchikey/QHMWCHQXCUNUAK-UHFFFAOYSA-N/SDF?record_type=3d

> <SMILES>
FC1=CC=C(C=C1)C(N1C=CN=C1)(C1=CC=CC=C1)C1=CC=CC=C1F

> <INCHI_IDENTIFIER>
InChI=1S/C22H16F2N2/c23-19-12-10-18(11-13-19)22(26-15-14-25-16-26,17-6-2-1-3-7-17)20-8-4-5-9-21(20)24/h1-16H

> <INCHI_KEY>
QHMWCHQXCUNUAK-UHFFFAOYSA-N

> <FORMULA>
C22H16F2N2

> <MOLECULAR_WEIGHT>
346.381

> <EXACT_MASS>
346.128154849

> <JCHEM_ACCEPTOR_COUNT>
1

> <JCHEM_ATOM_COUNT>
42

> <JCHEM_AVERAGE_POLARIZABILITY>
34.59153802306549

> <JCHEM_BIOAVAILABILITY>
1

> <JCHEM_DONOR_COUNT>
0

> <JCHEM_FORMAL_CHARGE>
0

> <JCHEM_GHOSE_FILTER>
1

> <JCHEM_IUPAC>
1-[(2-fluorophenyl)(4-fluorophenyl)phenylmethyl]-1H-imidazole

> <ALOGPS_LOGP>
4.73

> <JCHEM_LOGP>
5.520810867

> <ALOGPS_LOGS>
-5.59

> <JCHEM_MDDR_LIKE_RULE>
0

> <JCHEM_NUMBER_OF_RINGS>
4

> <JCHEM_PHYSIOLOGICAL_CHARGE>
0

> <JCHEM_PKA_STRONGEST_BASIC>
6.623542222318094

> <JCHEM_POLAR_SURFACE_AREA>
17.82

> <JCHEM_REFRACTIVITY>
99.3925

> <JCHEM_ROTATABLE_BOND_COUNT>
4

> <JCHEM_RULE_OF_FIVE>
0

> <ALOGPS_SOLUBILITY>
8.94e-04 g/l

> <JCHEM_TRADITIONAL_IUPAC>
flutrimazole

> <JCHEM_VEBER_RULE>
1

$$$$
51755
  -OEChem-10061700223D

 50 53  0     1  0  0  0  0  0999 V2000
   -4.4872    0.0852   -2.4376 Cl  0  0  0  0  0  0  0  0  0  0  0  0
   -6.3852    3.5529    1.2153 Cl  0  0  0  0  0  0  0  0  0  0  0  0
    4.6422    2.6480   -0.3607 S   0  0  0  0  0  0  0  0  0  0  0  0
   -1.2857   -0.4026   -0.0882 O   0  0  0  0  0  0  0  0  0  0  0  0
   -1.8892   -3.2293    0.3742 N   0  0  0  0  0  0  0  0  0  0  0  0
   -1.1972   -5.0899   -0.5889 N   0  0  0  0  0  0  0  0  0  0  0  0
   -2.6121   -0.8996   -0.1982 C   0  0  1  0  0  0  0  0  0  0  0  0
   -2.7646   -2.1174    0.7244 C   0  0  0  0  0  0  0  0  0  0  0  0
   -3.5739    0.2208    0.1267 C   0  0  0  0  0  0  0  0  0  0  0  0
   -1.0573    0.6768   -0.9858 C   0  0  0  0  0  0  0  0  0  0  0  0
   -4.4462    0.7142   -0.8307 C   0  0  0  0  0  0  0  0  0  0  0  0
   -3.5528    0.7358    1.4141 C   0  0  0  0  0  0  0  0  0  0  0  0
    0.3447    1.1611   -0.8317 C   0  0  0  0  0  0  0  0  0  0  0  0
   -0.6328   -3.4294    0.8470 C   0  0  0  0  0  0  0  0  0  0  0  0
   -2.1940   -4.2396   -0.4806 C   0  0  0  0  0  0  0  0  0  0  0  0
   -5.3190    1.7487   -0.4931 C   0  0  0  0  0  0  0  0  0  0  0  0
   -4.4255    1.7701    1.7515 C   0  0  0  0  0  0  0  0  0  0  0  0
    1.3633    0.6066   -1.6064 C   0  0  0  0  0  0  0  0  0  0  0  0
    0.6371    2.1696    0.0867 C   0  0  0  0  0  0  0  0  0  0  0  0
   -5.3087    2.2765    0.7979 C   0  0  0  0  0  0  0  0  0  0  0  0
   -0.2210   -4.5909    0.2368 C   0  0  0  0  0  0  0  0  0  0  0  0
    2.6745    1.0602   -1.4628 C   0  0  0  0  0  0  0  0  0  0  0  0
    1.9483    2.6234    0.2303 C   0  0  0  0  0  0  0  0  0  0  0  0
    2.9671    2.0687   -0.5444 C   0  0  0  0  0  0  0  0  0  0  0  0
    5.4784    1.1479    0.1331 C   0  0  0  0  0  0  0  0  0  0  0  0
    5.0919    0.4906    1.2983 C   0  0  0  0  0  0  0  0  0  0  0  0
    6.5133    0.6418   -0.6495 C   0  0  0  0  0  0  0  0  0  0  0  0
    5.7445   -0.6804    1.6838 C   0  0  0  0  0  0  0  0  0  0  0  0
    7.1657   -0.5294   -0.2641 C   0  0  0  0  0  0  0  0  0  0  0  0
    6.7813   -1.1903    0.9026 C   0  0  0  0  0  0  0  0  0  0  0  0
   -2.7265   -1.2743   -1.2195 H   0  0  0  0  0  0  0  0  0  0  0  0
   -2.5249   -1.8707    1.7658 H   0  0  0  0  0  0  0  0  0  0  0  0
   -3.7932   -2.4982    0.7041 H   0  0  0  0  0  0  0  0  0  0  0  0
   -1.2242    0.3453   -2.0187 H   0  0  0  0  0  0  0  0  0  0  0  0
   -1.7224    1.5275   -0.8034 H   0  0  0  0  0  0  0  0  0  0  0  0
   -2.8639    0.3667    2.1679 H   0  0  0  0  0  0  0  0  0  0  0  0
   -0.1495   -2.7623    1.5472 H   0  0  0  0  0  0  0  0  0  0  0  0
   -3.1423   -4.3118   -0.9956 H   0  0  0  0  0  0  0  0  0  0  0  0
   -6.0086    2.1449   -1.2356 H   0  0  0  0  0  0  0  0  0  0  0  0
   -4.4041    2.1741    2.7605 H   0  0  0  0  0  0  0  0  0  0  0  0
    1.1483   -0.1804   -2.3244 H   0  0  0  0  0  0  0  0  0  0  0  0
   -0.1474    2.6077    0.6982 H   0  0  0  0  0  0  0  0  0  0  0  0
    0.7292   -5.0923    0.3491 H   0  0  0  0  0  0  0  0  0  0  0  0
    3.4507    0.6168   -2.0815 H   0  0  0  0  0  0  0  0  0  0  0  0
    2.1574    3.4091    0.9523 H   0  0  0  0  0  0  0  0  0  0  0  0
    4.2908    0.8729    1.9259 H   0  0  0  0  0  0  0  0  0  0  0  0
    6.8256    1.1432   -1.5621 H   0  0  0  0  0  0  0  0  0  0  0  0
    5.4462   -1.1945    2.5928 H   0  0  0  0  0  0  0  0  0  0  0  0
    7.9730   -0.9268   -0.8723 H   0  0  0  0  0  0  0  0  0  0  0  0
    7.2895   -2.1020    1.2027 H   0  0  0  0  0  0  0  0  0  0  0  0
  1 11  1  0  0  0  0
  2 20  1  0  0  0  0
  3 24  1  0  0  0  0
  3 25  1  0  0  0  0
  4  7  1  0  0  0  0
  4 10  1  0  0  0  0
  5  8  1  0  0  0  0
  5 14  1  0  0  0  0
  5 15  1  0  0  0  0
  6 15  2  0  0  0  0
  6 21  1  0  0  0  0
  7  8  1  0  0  0  0
  7  9  1  0  0  0  0
  7 31  1  0  0  0  0
  8 32  1  0  0  0  0
  8 33  1  0  0  0  0
  9 11  2  0  0  0  0
  9 12  1  0  0  0  0
 10 13  1  0  0  0  0
 10 34  1  0  0  0  0
 10 35  1  0  0  0  0
 11 16  1  0  0  0  0
 12 17  2  0  0  0  0
 12 36  1  0  0  0  0
 13 18  2  0  0  0  0
 13 19  1  0  0  0  0
 14 21  2  0  0  0  0
 14 37  1  0  0  0  0
 15 38  1  0  0  0  0
 16 20  2  0  0  0  0
 16 39  1  0  0  0  0
 17 20  1  0  0  0  0
 17 40  1  0  0  0  0
 18 22  1  0  0  0  0
 18 41  1  0  0  0  0
 19 23  2  0  0  0  0
 19 42  1  0  0  0  0
 21 43  1  0  0  0  0
 22 24  2  0  0  0  0
 22 44  1  0  0  0  0
 23 24  1  0  0  0  0
 23 45  1  0  0  0  0
 25 26  2  0  0  0  0
 25 27  1  0  0  0  0
 26 28  1  0  0  0  0
 26 46  1  0  0  0  0
 27 29  2  0  0  0  0
 27 47  1  0  0  0  0
 28 30  2  0  0  0  0
 28 48  1  0  0  0  0
 29 30  1  0  0  0  0
 29 49  1  0  0  0  0
 30 50  1  0  0  0  0
M  END
> <DATABASE_ID>
DB13434

> <DATABASE_NAME>
drugbank

> <ORIGINAL_SOURCE>
PUBCHEM

> <ORIGINAL_SOURCE_URL>
https://pubchem.ncbi.nlm.nih.gov/rest/pug/compound/inchikey/ZCJYUTQZBAIHBS-UHFFFAOYSA-N/SDF?record_type=3d

> <SMILES>
ClC1=CC(Cl)=C(C=C1)C(CN1C=CN=C1)OCC1=CC=C(SC2=CC=CC=C2)C=C1

> <INCHI_IDENTIFIER>
InChI=1S/C24H20Cl2N2OS/c25-19-8-11-22(23(26)14-19)24(15-28-13-12-27-17-28)29-16-18-6-9-21(10-7-18)30-20-4-2-1-3-5-20/h1-14,17,24H,15-16H2

> <INCHI_KEY>
ZCJYUTQZBAIHBS-UHFFFAOYSA-N

> <FORMULA>
C24H20Cl2N2OS

> <MOLECULAR_WEIGHT>
455.4

> <EXACT_MASS>
454.0673398

> <JCHEM_ACCEPTOR_COUNT>
2

> <JCHEM_ATOM_COUNT>
50

> <JCHEM_AVERAGE_POLARIZABILITY>
47.63127587177988

> <JCHEM_BIOAVAILABILITY>
1

> <JCHEM_DONOR_COUNT>
0

> <JCHEM_FORMAL_CHARGE>
0

> <JCHEM_GHOSE_FILTER>
0

> <JCHEM_IUPAC>
1-[2-(2,4-dichlorophenyl)-2-{[4-(phenylsulfanyl)phenyl]methoxy}ethyl]-1H-imidazole

> <ALOGPS_LOGP>
6.31

> <JCHEM_LOGP>
6.937028471333333

> <ALOGPS_LOGS>
-6.17

> <JCHEM_MDDR_LIKE_RULE>
1

> <JCHEM_NUMBER_OF_RINGS>
4

> <JCHEM_PHYSIOLOGICAL_CHARGE>
1

> <JCHEM_PKA_STRONGEST_BASIC>
6.767291901775012

> <JCHEM_POLAR_SURFACE_AREA>
27.05

> <JCHEM_REFRACTIVITY>
126.14209999999996

> <JCHEM_ROTATABLE_BOND_COUNT>
8

> <JCHEM_RULE_OF_FIVE>
0

> <ALOGPS_SOLUBILITY>
3.04e-04 g/l

> <JCHEM_TRADITIONAL_IUPAC>
lomexin

> <JCHEM_VEBER_RULE>
1

$$$$
5282176
  -OEChem-10061700223D

 46 46  0     1  0  0  0  0  0999 V2000
   -3.9955   -1.6388    1.2651 O   0  0  0  0  0  0  0  0  0  0  0  0
    5.7162    2.2498    0.4582 O   0  0  0  0  0  0  0  0  0  0  0  0
   -3.5610    1.9675   -1.1020 O   0  0  0  0  0  0  0  0  0  0  0  0
   -4.6687    0.1159   -0.2166 N   0  0  0  0  0  0  0  0  0  0  0  0
   -6.7492   -0.7855   -0.7934 C   0  0  0  0  0  0  0  0  0  0  0  0
   -5.9508    0.4962   -0.7809 C   0  0  0  0  0  0  0  0  0  0  0  0
   -6.2613   -1.5063    0.4487 C   0  0  0  0  0  0  0  0  0  0  0  0
   -4.8193   -1.0677    0.5657 C   0  0  0  0  0  0  0  0  0  0  0  0
    5.9715    0.2226   -0.8093 C   0  0  0  0  0  0  0  0  0  0  0  0
    5.4424   -1.1544   -1.2244 C   0  0  0  0  0  0  0  0  0  0  0  0
    5.1557    0.9456    0.2741 C   0  0  2  0  0  0  0  0  0  0  0  0
    5.4464   -2.2230   -0.1291 C   0  0  0  0  0  0  0  0  0  0  0  0
   -3.5649    0.9633   -0.3902 C   0  0  0  0  0  0  0  0  0  0  0  0
    3.7067    1.1099   -0.1039 C   0  0  0  0  0  0  0  0  0  0  0  0
    4.9919   -3.5912   -0.6124 C   0  0  0  0  0  0  0  0  0  0  0  0
    2.6076    0.7090    0.5698 C   0  0  0  0  0  0  0  0  0  0  0  0
   -2.3439    0.6189    0.3614 C   0  0  0  0  0  0  0  0  0  0  0  0
    1.2923    0.9707   -0.0222 C   0  0  0  0  0  0  0  0  0  0  0  0
   -1.1555    0.9434   -0.1615 C   0  0  0  0  0  0  0  0  0  0  0  0
    2.6418    0.0079    1.9025 C   0  0  0  0  0  0  0  0  0  0  0  0
    0.0978    0.6463    0.5002 C   0  0  0  0  0  0  0  0  0  0  0  0
   -7.8293   -0.6155   -0.7928 H   0  0  0  0  0  0  0  0  0  0  0  0
   -6.4976   -1.3744   -1.6842 H   0  0  0  0  0  0  0  0  0  0  0  0
   -5.8339    0.9308   -1.7784 H   0  0  0  0  0  0  0  0  0  0  0  0
   -6.3993    1.2477   -0.1209 H   0  0  0  0  0  0  0  0  0  0  0  0
   -6.8011   -1.1788    1.3428 H   0  0  0  0  0  0  0  0  0  0  0  0
   -6.3329   -2.5916    0.3445 H   0  0  0  0  0  0  0  0  0  0  0  0
    6.0255    0.8599   -1.7027 H   0  0  0  0  0  0  0  0  0  0  0  0
    7.0101    0.1282   -0.4659 H   0  0  0  0  0  0  0  0  0  0  0  0
    6.0676   -1.5117   -2.0532 H   0  0  0  0  0  0  0  0  0  0  0  0
    4.4304   -1.0587   -1.6354 H   0  0  0  0  0  0  0  0  0  0  0  0
    5.2890    0.4140    1.2182 H   0  0  0  0  0  0  0  0  0  0  0  0
    6.4581   -2.3126    0.2840 H   0  0  0  0  0  0  0  0  0  0  0  0
    4.7943   -1.9123    0.6940 H   0  0  0  0  0  0  0  0  0  0  0  0
    3.5666    1.6232   -1.0566 H   0  0  0  0  0  0  0  0  0  0  0  0
    5.6450   -3.9608   -1.4091 H   0  0  0  0  0  0  0  0  0  0  0  0
    3.9688   -3.5476   -0.9990 H   0  0  0  0  0  0  0  0  0  0  0  0
    5.0154   -4.3126    0.2102 H   0  0  0  0  0  0  0  0  0  0  0  0
   -2.4223    0.1380    1.3276 H   0  0  0  0  0  0  0  0  0  0  0  0
    5.2290    2.6794    1.1823 H   0  0  0  0  0  0  0  0  0  0  0  0
    1.3054    1.4802   -0.9860 H   0  0  0  0  0  0  0  0  0  0  0  0
   -1.0911    1.4349   -1.1293 H   0  0  0  0  0  0  0  0  0  0  0  0
    2.1997   -0.9913    1.8214 H   0  0  0  0  0  0  0  0  0  0  0  0
    3.6482   -0.1245    2.3037 H   0  0  0  0  0  0  0  0  0  0  0  0
    2.0842    0.5799    2.6527 H   0  0  0  0  0  0  0  0  0  0  0  0
    0.0280    0.1371    1.4574 H   0  0  0  0  0  0  0  0  0  0  0  0
  1  8  2  0  0  0  0
  2 11  1  0  0  0  0
  2 40  1  0  0  0  0
  3 13  2  0  0  0  0
  4  6  1  0  0  0  0
  4  8  1  0  0  0  0
  4 13  1  0  0  0  0
  5  6  1  0  0  0  0
  5  7  1  0  0  0  0
  5 22  1  0  0  0  0
  5 23  1  0  0  0  0
  6 24  1  0  0  0  0
  6 25  1  0  0  0  0
  7  8  1  0  0  0  0
  7 26  1  0  0  0  0
  7 27  1  0  0  0  0
  9 10  1  0  0  0  0
  9 11  1  0  0  0  0
  9 28  1  0  0  0  0
  9 29  1  0  0  0  0
 10 12  1  0  0  0  0
 10 30  1  0  0  0  0
 10 31  1  0  0  0  0
 11 14  1  0  0  0  0
 11 32  1  0  0  0  0
 12 15  1  0  0  0  0
 12 33  1  0  0  0  0
 12 34  1  0  0  0  0
 13 17  1  0  0  0  0
 14 16  2  0  0  0  0
 14 35  1  0  0  0  0
 15 36  1  0  0  0  0
 15 37  1  0  0  0  0
 15 38  1  0  0  0  0
 16 18  1  0  0  0  0
 16 20  1  0  0  0  0
 17 19  2  0  0  0  0
 17 39  1  0  0  0  0
 18 21  2  0  0  0  0
 18 41  1  0  0  0  0
 19 21  1  0  0  0  0
 19 42  1  0  0  0  0
 20 43  1  0  0  0  0
 20 44  1  0  0  0  0
 20 45  1  0  0  0  0
 21 46  1  0  0  0  0
M  END
> <DATABASE_ID>
DB13459

> <DATABASE_NAME>
drugbank

> <ORIGINAL_SOURCE>
PUBCHEM

> <ORIGINAL_SOURCE_URL>
https://pubchem.ncbi.nlm.nih.gov/rest/pug/compound/inchikey/ZYPGADGCNXOUJP-CXVPHVKISA-N/SDF?record_type=3d

> <SMILES>
CCCC[C@@H](O)\C=C(/C)\C=C\C=C\C(=O)N1CCCC1=O

> <INCHI_IDENTIFIER>
InChI=1S/C17H25NO3/c1-3-4-9-15(19)13-14(2)8-5-6-10-16(20)18-12-7-11-17(18)21/h5-6,8,10,13,15,19H,3-4,7,9,11-12H2,1-2H3/b8-5+,10-6+,14-13+/t15-/m1/s1

> <INCHI_KEY>
ZYPGADGCNXOUJP-CXVPHVKISA-N

> <FORMULA>
C17H25NO3

> <MOLECULAR_WEIGHT>
291.391

> <EXACT_MASS>
291.183443669

> <JCHEM_ACCEPTOR_COUNT>
3

> <JCHEM_ATOM_COUNT>
46

> <JCHEM_AVERAGE_POLARIZABILITY>
33.93666222277183

> <JCHEM_BIOAVAILABILITY>
1

> <JCHEM_DONOR_COUNT>
1

> <JCHEM_FORMAL_CHARGE>
0

> <JCHEM_GHOSE_FILTER>
1

> <JCHEM_IUPAC>
1-[(2E,4E,6E,8R)-8-hydroxy-6-methyldodeca-2,4,6-trienoyl]pyrrolidin-2-one

> <ALOGPS_LOGP>
2.82

> <JCHEM_LOGP>
2.397183220333334

> <ALOGPS_LOGS>
-3.21

> <JCHEM_MDDR_LIKE_RULE>
0

> <JCHEM_NUMBER_OF_RINGS>
1

> <JCHEM_PHYSIOLOGICAL_CHARGE>
0

> <JCHEM_PKA_STRONGEST_ACIDIC>
18.092686763973152

> <JCHEM_PKA_STRONGEST_BASIC>
-1.442208138809054

> <JCHEM_POLAR_SURFACE_AREA>
57.61

> <JCHEM_REFRACTIVITY>
86.98369999999998

> <JCHEM_ROTATABLE_BOND_COUNT>
7

> <JCHEM_RULE_OF_FIVE>
1

> <ALOGPS_SOLUBILITY>
1.81e-01 g/l

> <JCHEM_TRADITIONAL_IUPAC>
supral

> <JCHEM_VEBER_RULE>
0

$$$$
5282200
  -OEChem-10061700253D

105105  0     1  0  0  0  0  0999 V2000
   -2.9152   -0.4368    2.0623 O   0  0  0  0  0  0  0  0  0  0  0  0
   -0.2319   -0.0427    1.3142 O   0  0  0  0  0  0  0  0  0  0  0  0
   -4.7937    3.0082    0.9489 O   0  0  0  0  0  0  0  0  0  0  0  0
    2.2891    1.6893   -1.6394 O   0  0  0  0  0  0  0  0  0  0  0  0
    3.4013    3.9772    1.8086 O   0  0  0  0  0  0  0  0  0  0  0  0
   -5.3381   -1.6445    0.6643 O   0  0  0  0  0  0  0  0  0  0  0  0
    5.8183    2.7514    2.7485 O   0  0  0  0  0  0  0  0  0  0  0  0
    7.8545    2.6470   -0.8210 O   0  0  0  0  0  0  0  0  0  0  0  0
   -4.9446   -0.5523   -1.3291 O   0  0  0  0  0  0  0  0  0  0  0  0
    9.5133    0.5133    0.0204 O   0  0  0  0  0  0  0  0  0  0  0  0
    8.8797   -2.0122   -1.1443 O   0  0  0  0  0  0  0  0  0  0  0  0
   -5.8286   -5.2733    0.3544 O   0  0  0  0  0  0  0  0  0  0  0  0
   -4.6768    0.6185    0.7909 C   0  0  1  0  0  0  0  0  0  0  0  0
   -3.1933    0.6756    1.2086 C   0  0  2  0  0  0  0  0  0  0  0  0
   -2.1844    0.6663    0.0450 C   0  0  0  0  0  0  0  0  0  0  0  0
   -0.7487    1.0038    0.4970 C   0  0  2  0  0  0  0  0  0  0  0  0
    0.1819    1.1683   -0.7126 C   0  0  0  0  0  0  0  0  0  0  0  0
   -5.1421    1.9094    0.1151 C   0  0  1  0  0  0  0  0  0  0  0  0
    1.6681    1.3994   -0.3838 C   0  0  2  0  0  0  0  0  0  0  0  0
    1.9071    2.5459    0.6051 C   0  0  0  0  0  0  0  0  0  0  0  0
    3.3596    3.0343    0.7357 C   0  0  2  0  0  0  0  0  0  0  0  0
   -6.6553    1.8977   -0.1045 C   0  0  0  0  0  0  0  0  0  0  0  0
    4.3880    1.9169    0.9925 C   0  0  0  0  0  0  0  0  0  0  0  0
    5.7822    2.4691    1.3452 C   0  0  2  0  0  0  0  0  0  0  0  0
    6.9129    1.4614    1.0655 C   0  0  0  0  0  0  0  0  0  0  0  0
   -7.1427    3.1775   -0.7925 C   0  0  0  0  0  0  0  0  0  0  0  0
   -4.9923   -0.5722   -0.1064 C   0  0  0  0  0  0  0  0  0  0  0  0
    7.2914    1.3901   -0.4229 C   0  0  2  0  0  0  0  0  0  0  0  0
    8.3391    0.3158   -0.7793 C   0  0  2  0  0  0  0  0  0  0  0  0
   -8.6536    3.1385   -1.0307 C   0  0  0  0  0  0  0  0  0  0  0  0
    7.8756   -1.1444   -0.6061 C   0  0  1  0  0  0  0  0  0  0  0  0
   -9.1354    4.3965   -1.7528 C   0  0  0  0  0  0  0  0  0  0  0  0
   -5.7503   -2.8605   -0.0031 C   0  0  1  0  0  0  0  0  0  0  0  0
    6.5571   -1.4641   -1.2942 C   0  0  0  0  0  0  0  0  0  0  0  0
   -5.3191   -4.0496    0.8793 C   0  0  2  0  0  0  0  0  0  0  0  0
  -10.6310    4.3465   -2.0213 C   0  0  0  0  0  0  0  0  0  0  0  0
   -7.2682   -2.8052   -0.1759 C   0  0  0  0  0  0  0  0  0  0  0  0
    6.5234   -1.2717   -2.7898 C   0  0  0  0  0  0  0  0  0  0  0  0
    5.5155   -1.8840   -0.5486 C   0  0  0  0  0  0  0  0  0  0  0  0
   -3.8350   -4.2205    1.0966 C   0  0  0  0  0  0  0  0  0  0  0  0
    4.1632   -2.1325   -0.9979 C   0  0  0  0  0  0  0  0  0  0  0  0
   -2.8586   -3.7393    0.3125 C   0  0  0  0  0  0  0  0  0  0  0  0
    3.2219   -2.6555   -0.1977 C   0  0  0  0  0  0  0  0  0  0  0  0
   -1.4534   -3.8500    0.6309 C   0  0  0  0  0  0  0  0  0  0  0  0
    1.8428   -2.8041   -0.6037 C   0  0  0  0  0  0  0  0  0  0  0  0
   -0.4965   -3.3633   -0.1727 C   0  0  0  0  0  0  0  0  0  0  0  0
    0.9026   -3.3393    0.1887 C   0  0  0  0  0  0  0  0  0  0  0  0
   -5.2710    0.4961    1.7089 H   0  0  0  0  0  0  0  0  0  0  0  0
   -3.0153    1.5646    1.8232 H   0  0  0  0  0  0  0  0  0  0  0  0
   -2.4882    1.3955   -0.7129 H   0  0  0  0  0  0  0  0  0  0  0  0
   -2.1787   -0.3291   -0.4164 H   0  0  0  0  0  0  0  0  0  0  0  0
   -0.7563    1.9274    1.0861 H   0  0  0  0  0  0  0  0  0  0  0  0
    0.1195    0.2696   -1.3422 H   0  0  0  0  0  0  0  0  0  0  0  0
   -0.1840    1.9919   -1.3404 H   0  0  0  0  0  0  0  0  0  0  0  0
   -4.6508    2.0522   -0.8548 H   0  0  0  0  0  0  0  0  0  0  0  0
    2.1140    0.4782    0.0066 H   0  0  0  0  0  0  0  0  0  0  0  0
    1.5397    2.2573    1.5982 H   0  0  0  0  0  0  0  0  0  0  0  0
    1.3006    3.4133    0.3103 H   0  0  0  0  0  0  0  0  0  0  0  0
    3.6352    3.5726   -0.1794 H   0  0  0  0  0  0  0  0  0  0  0  0
   -7.1655    1.8137    0.8638 H   0  0  0  0  0  0  0  0  0  0  0  0
   -6.9604    1.0374   -0.7098 H   0  0  0  0  0  0  0  0  0  0  0  0
    4.0338    1.2928    1.8230 H   0  0  0  0  0  0  0  0  0  0  0  0
    4.4417    1.2852    0.1007 H   0  0  0  0  0  0  0  0  0  0  0  0
    5.9689    3.4113    0.8209 H   0  0  0  0  0  0  0  0  0  0  0  0
    7.7941    1.7669    1.6444 H   0  0  0  0  0  0  0  0  0  0  0  0
    6.6209    0.4757    1.4453 H   0  0  0  0  0  0  0  0  0  0  0  0
   -6.6236    3.2960   -1.7514 H   0  0  0  0  0  0  0  0  0  0  0  0
   -6.8957    4.0527   -0.1800 H   0  0  0  0  0  0  0  0  0  0  0  0
    6.3995    1.2414   -1.0387 H   0  0  0  0  0  0  0  0  0  0  0  0
    8.6762    0.4735   -1.8115 H   0  0  0  0  0  0  0  0  0  0  0  0
   -8.9078    2.2543   -1.6281 H   0  0  0  0  0  0  0  0  0  0  0  0
   -9.1757    3.0410   -0.0711 H   0  0  0  0  0  0  0  0  0  0  0  0
   -3.5126   -0.3791    2.8273 H   0  0  0  0  0  0  0  0  0  0  0  0
   -0.7932   -0.1045    2.1053 H   0  0  0  0  0  0  0  0  0  0  0  0
   -3.8695    3.2430    0.7590 H   0  0  0  0  0  0  0  0  0  0  0  0
    2.1972    0.9010   -2.2017 H   0  0  0  0  0  0  0  0  0  0  0  0
    7.8301   -1.3781    0.4647 H   0  0  0  0  0  0  0  0  0  0  0  0
    4.2347    4.4724    1.7429 H   0  0  0  0  0  0  0  0  0  0  0  0
   -8.6041    4.5062   -2.7055 H   0  0  0  0  0  0  0  0  0  0  0  0
   -8.9063    5.2827   -1.1496 H   0  0  0  0  0  0  0  0  0  0  0  0
   -5.2982   -2.9424   -0.9990 H   0  0  0  0  0  0  0  0  0  0  0  0
    6.6648    3.1906    2.9383 H   0  0  0  0  0  0  0  0  0  0  0  0
    7.1248    3.2798   -0.9264 H   0  0  0  0  0  0  0  0  0  0  0  0
   -5.7545   -3.9104    1.8784 H   0  0  0  0  0  0  0  0  0  0  0  0
    9.3075    0.2489    0.9328 H   0  0  0  0  0  0  0  0  0  0  0  0
  -11.1949    4.2674   -1.0863 H   0  0  0  0  0  0  0  0  0  0  0  0
  -10.8882    3.4893   -2.6515 H   0  0  0  0  0  0  0  0  0  0  0  0
  -10.9542    5.2563   -2.5369 H   0  0  0  0  0  0  0  0  0  0  0  0
   -7.5591   -1.9022   -0.7239 H   0  0  0  0  0  0  0  0  0  0  0  0
   -7.6464   -3.6714   -0.7263 H   0  0  0  0  0  0  0  0  0  0  0  0
   -7.7710   -2.7560    0.7962 H   0  0  0  0  0  0  0  0  0  0  0  0
    8.5933   -2.9285   -0.9868 H   0  0  0  0  0  0  0  0  0  0  0  0
    5.6336   -1.6963   -3.2608 H   0  0  0  0  0  0  0  0  0  0  0  0
    6.5585   -0.2077   -3.0423 H   0  0  0  0  0  0  0  0  0  0  0  0
    7.3819   -1.7638   -3.2587 H   0  0  0  0  0  0  0  0  0  0  0  0
    5.6717   -2.0150    0.5217 H   0  0  0  0  0  0  0  0  0  0  0  0
   -3.5634   -4.7696    1.9973 H   0  0  0  0  0  0  0  0  0  0  0  0
   -6.7798   -5.3075    0.5517 H   0  0  0  0  0  0  0  0  0  0  0  0
    3.8970   -1.8348   -2.0073 H   0  0  0  0  0  0  0  0  0  0  0  0
   -3.1055   -3.2014   -0.5978 H   0  0  0  0  0  0  0  0  0  0  0  0
    3.4728   -2.9526    0.8182 H   0  0  0  0  0  0  0  0  0  0  0  0
   -1.1912   -4.3007    1.5851 H   0  0  0  0  0  0  0  0  0  0  0  0
    1.5709   -2.4111   -1.5811 H   0  0  0  0  0  0  0  0  0  0  0  0
   -0.7670   -2.9041   -1.1214 H   0  0  0  0  0  0  0  0  0  0  0  0
    1.1694   -3.7246    1.1701 H   0  0  0  0  0  0  0  0  0  0  0  0
  1 14  1  0  0  0  0
  1 73  1  0  0  0  0
  2 16  1  0  0  0  0
  2 74  1  0  0  0  0
  3 18  1  0  0  0  0
  3 75  1  0  0  0  0
  4 19  1  0  0  0  0
  4 76  1  0  0  0  0
  5 21  1  0  0  0  0
  5 78  1  0  0  0  0
  6 27  1  0  0  0  0
  6 33  1  0  0  0  0
  7 24  1  0  0  0  0
  7 82  1  0  0  0  0
  8 28  1  0  0  0  0
  8 83  1  0  0  0  0
  9 27  2  0  0  0  0
 10 29  1  0  0  0  0
 10 85  1  0  0  0  0
 11 31  1  0  0  0  0
 11 92  1  0  0  0  0
 12 35  1  0  0  0  0
 12 98  1  0  0  0  0
 13 14  1  0  0  0  0
 13 18  1  0  0  0  0
 13 27  1  0  0  0  0
 13 48  1  0  0  0  0
 14 15  1  0  0  0  0
 14 49  1  0  0  0  0
 15 16  1  0  0  0  0
 15 50  1  0  0  0  0
 15 51  1  0  0  0  0
 16 17  1  0  0  0  0
 16 52  1  0  0  0  0
 17 19  1  0  0  0  0
 17 53  1  0  0  0  0
 17 54  1  0  0  0  0
 18 22  1  0  0  0  0
 18 55  1  0  0  0  0
 19 20  1  0  0  0  0
 19 56  1  0  0  0  0
 20 21  1  0  0  0  0
 20 57  1  0  0  0  0
 20 58  1  0  0  0  0
 21 23  1  0  0  0  0
 21 59  1  0  0  0  0
 22 26  1  0  0  0  0
 22 60  1  0  0  0  0
 22 61  1  0  0  0  0
 23 24  1  0  0  0  0
 23 62  1  0  0  0  0
 23 63  1  0  0  0  0
 24 25  1  0  0  0  0
 24 64  1  0  0  0  0
 25 28  1  0  0  0  0
 25 65  1  0  0  0  0
 25 66  1  0  0  0  0
 26 30  1  0  0  0  0
 26 67  1  0  0  0  0
 26 68  1  0  0  0  0
 28 29  1  0  0  0  0
 28 69  1  0  0  0  0
 29 31  1  0  0  0  0
 29 70  1  0  0  0  0
 30 32  1  0  0  0  0
 30 71  1  0  0  0  0
 30 72  1  0  0  0  0
 31 34  1  0  0  0  0
 31 77  1  0  0  0  0
 32 36  1  0  0  0  0
 32 79  1  0  0  0  0
 32 80  1  0  0  0  0
 33 35  1  0  0  0  0
 33 37  1  0  0  0  0
 33 81  1  0  0  0  0
 34 38  1  0  0  0  0
 34 39  2  0  0  0  0
 35 40  1  0  0  0  0
 35 84  1  0  0  0  0
 36 86  1  0  0  0  0
 36 87  1  0  0  0  0
 36 88  1  0  0  0  0
 37 89  1  0  0  0  0
 37 90  1  0  0  0  0
 37 91  1  0  0  0  0
 38 93  1  0  0  0  0
 38 94  1  0  0  0  0
 38 95  1  0  0  0  0
 39 41  1  0  0  0  0
 39 96  1  0  0  0  0
 40 42  2  0  0  0  0
 40 97  1  0  0  0  0
 41 43  2  0  0  0  0
 41 99  1  0  0  0  0
 42 44  1  0  0  0  0
 42100  1  0  0  0  0
 43 45  1  0  0  0  0
 43101  1  0  0  0  0
 44 46  2  0  0  0  0
 44102  1  0  0  0  0
 45 47  2  0  0  0  0
 45103  1  0  0  0  0
 46 47  1  0  0  0  0
 46104  1  0  0  0  0
 47105  1  0  0  0  0
M  END
> <DATABASE_ID>
DB13571

> <DATABASE_NAME>
drugbank

> <ORIGINAL_SOURCE>
PUBCHEM

> <ORIGINAL_SOURCE_URL>
https://pubchem.ncbi.nlm.nih.gov/rest/pug/compound/inchikey/AGJUUQSLGVCRQA-SWOUQTJZSA-N/SDF?record_type=3d

> <SMILES>
CCCCC[C@@H](O)[C@@H]1[C@@H](O)C[C@@H](O)C[C@@H](O)C[C@@H](O)C[C@@H](O)C[C@@H](O)[C@@H](O)[C@H](O)\C(C)=C\C=C\C=C\C=C\C=C\[C@H](O)[C@@H](C)OC1=O

> <INCHI_IDENTIFIER>
InChI=1S/C35H58O12/c1-4-5-11-16-29(41)32-30(42)20-26(38)18-24(36)17-25(37)19-27(39)21-31(43)34(45)33(44)22(2)14-12-9-7-6-8-10-13-15-28(40)23(3)47-35(32)46/h6-10,12-15,23-34,36-45H,4-5,11,16-21H2,1-3H3/b7-6+,10-8+,12-9+,15-13+,22-14+/t23-,24+,25-,26+,27-,28+,29-,30+,31-,32-,33-,34-/m1/s1

> <INCHI_KEY>
AGJUUQSLGVCRQA-SWOUQTJZSA-N

> <FORMULA>
C35H58O12

> <MOLECULAR_WEIGHT>
670.837

> <EXACT_MASS>
670.392827308

> <JCHEM_ACCEPTOR_COUNT>
11

> <JCHEM_ATOM_COUNT>
105

> <JCHEM_AVERAGE_POLARIZABILITY>
74.30020763866222

> <JCHEM_BIOAVAILABILITY>
0

> <JCHEM_DONOR_COUNT>
10

> <JCHEM_FORMAL_CHARGE>
0

> <JCHEM_GHOSE_FILTER>
0

> <JCHEM_IUPAC>
(3R,4S,6S,8S,10R,12R,14R,15R,16R,17E,19E,21E,23E,25E,27S,28R)-4,6,8,10,12,14,15,16,27-nonahydroxy-3-[(1R)-1-hydroxyhexyl]-17,28-dimethyl-1-oxacyclooctacosa-17,19,21,23,25-pentaen-2-one

> <ALOGPS_LOGP>
0.07

> <JCHEM_LOGP>
-0.6812924829999973

> <ALOGPS_LOGS>
-3.51

> <JCHEM_MDDR_LIKE_RULE>
0

> <JCHEM_NUMBER_OF_RINGS>
1

> <JCHEM_PHYSIOLOGICAL_CHARGE>
0

> <JCHEM_PKA>
13.612657766518982

> <JCHEM_PKA_STRONGEST_ACIDIC>
12.88715692916012

> <JCHEM_PKA_STRONGEST_BASIC>
-2.758294189003185

> <JCHEM_POLAR_SURFACE_AREA>
228.59999999999997

> <JCHEM_REFRACTIVITY>
182.93140000000014

> <JCHEM_ROTATABLE_BOND_COUNT>
5

> <JCHEM_RULE_OF_FIVE>
0

> <ALOGPS_SOLUBILITY>
2.09e-01 g/l

> <JCHEM_TRADITIONAL_IUPAC>
pentamycin

> <JCHEM_VEBER_RULE>
0

$$$$
13916
  -OEChem-10061700263D

 22 23  0     0  0  0  0  0  0999 V2000
    1.9870   -0.3504    2.4458 Cl  0  0  0  0  0  0  0  0  0  0  0  0
   -3.6925    1.0816    0.1398 Cl  0  0  0  0  0  0  0  0  0  0  0  0
    0.4967    1.9560   -0.1046 O   0  5  0  0  0  0  0  0  0  0  0  0
   -1.6195    2.5169    0.0573 O   0  0  0  0  0  0  0  0  0  0  0  0
    3.2411    0.1484   -1.1873 N   0  0  0  0  0  0  0  0  0  0  0  0
   -0.7159    1.6569   -0.0356 N   0  3  0  0  0  0  0  0  0  0  0  0
   -0.0970   -0.7031   -0.1681 C   0  0  0  0  0  0  0  0  0  0  0  0
    1.3011   -0.3653   -0.2478 C   0  0  0  0  0  0  0  0  0  0  0  0
   -1.0839    0.2773   -0.0646 C   0  0  0  0  0  0  0  0  0  0  0  0
   -0.4536   -2.0513   -0.1965 C   0  0  0  0  0  0  0  0  0  0  0  0
    2.2605   -0.1930    0.7758 C   0  0  0  0  0  0  0  0  0  0  0  0
    1.9297   -0.1499   -1.4511 C   0  0  0  0  0  0  0  0  0  0  0  0
   -2.4272   -0.0906    0.0104 C   0  0  0  0  0  0  0  0  0  0  0  0
    3.4542    0.1246    0.1662 C   0  0  0  0  0  0  0  0  0  0  0  0
   -1.7970   -2.4192   -0.1214 C   0  0  0  0  0  0  0  0  0  0  0  0
   -2.7838   -1.4388   -0.0181 C   0  0  0  0  0  0  0  0  0  0  0  0
    0.3012   -2.8303   -0.2759 H   0  0  0  0  0  0  0  0  0  0  0  0
    1.5716   -0.1792   -2.4715 H   0  0  0  0  0  0  0  0  0  0  0  0
    4.4346    0.3360    0.5703 H   0  0  0  0  0  0  0  0  0  0  0  0
    3.9435    0.3541   -1.8844 H   0  0  0  0  0  0  0  0  0  0  0  0
   -2.0746   -3.4690   -0.1432 H   0  0  0  0  0  0  0  0  0  0  0  0
   -3.8259   -1.7431    0.0394 H   0  0  0  0  0  0  0  0  0  0  0  0
  1 11  1  0  0  0  0
  2 13  1  0  0  0  0
  3  6  1  0  0  0  0
  4  6  2  0  0  0  0
  5 12  1  0  0  0  0
  5 14  1  0  0  0  0
  5 20  1  0  0  0  0
  6  9  1  0  0  0  0
  7  8  1  0  0  0  0
  7  9  2  0  0  0  0
  7 10  1  0  0  0  0
  8 11  1  0  0  0  0
  8 12  2  0  0  0  0
  9 13  1  0  0  0  0
 10 15  2  0  0  0  0
 10 17  1  0  0  0  0
 11 14  2  0  0  0  0
 12 18  1  0  0  0  0
 13 16  2  0  0  0  0
 14 19  1  0  0  0  0
 15 16  1  0  0  0  0
 15 21  1  0  0  0  0
 16 22  1  0  0  0  0
M  CHG  2   3  -1   6   1
M  END
> <DATABASE_ID>
DB13603

> <DATABASE_NAME>
drugbank

> <ORIGINAL_SOURCE>
PUBCHEM

> <ORIGINAL_SOURCE_URL>
https://pubchem.ncbi.nlm.nih.gov/rest/pug/compound/inchikey/QJBZDBLBQWFTPZ-UHFFFAOYSA-N/SDF?record_type=3d

> <SMILES>
[O-][N+](=O)C1=C(Cl)C=CC=C1C1=CNC=C1Cl

> <INCHI_IDENTIFIER>
InChI=1S/C10H6Cl2N2O2/c11-8-3-1-2-6(10(8)14(15)16)7-4-13-5-9(7)12/h1-5,13H

> <INCHI_KEY>
QJBZDBLBQWFTPZ-UHFFFAOYSA-N

> <FORMULA>
C10H6Cl2N2O2

> <MOLECULAR_WEIGHT>
257.07

> <EXACT_MASS>
255.9806328

> <JCHEM_ACCEPTOR_COUNT>
2

> <JCHEM_ATOM_COUNT>
22

> <JCHEM_AVERAGE_POLARIZABILITY>
22.535194748895407

> <JCHEM_BIOAVAILABILITY>
1

> <JCHEM_DONOR_COUNT>
1

> <JCHEM_FORMAL_CHARGE>
0

> <JCHEM_GHOSE_FILTER>
1

> <JCHEM_IUPAC>
3-chloro-4-(3-chloro-2-nitrophenyl)-1H-pyrrole

> <ALOGPS_LOGP>
3.86

> <JCHEM_LOGP>
3.848428832666667

> <ALOGPS_LOGS>
-3.55

> <JCHEM_MDDR_LIKE_RULE>
0

> <JCHEM_NUMBER_OF_RINGS>
2

> <JCHEM_PHYSIOLOGICAL_CHARGE>
0

> <JCHEM_PKA_STRONGEST_ACIDIC>
15.061515816511207

> <JCHEM_POLAR_SURFACE_AREA>
58.93

> <JCHEM_REFRACTIVITY>
61.883100000000006

> <JCHEM_ROTATABLE_BOND_COUNT>
2

> <JCHEM_RULE_OF_FIVE>
1

> <ALOGPS_SOLUBILITY>
7.24e-02 g/l

> <JCHEM_TRADITIONAL_IUPAC>
pyrrolnitrin

> <JCHEM_VEBER_RULE>
0

$$$$
3033988
  -OEChem-10061700283D

 44 46  0     0  0  0  0  0  0999 V2000
    3.3247    0.0702    2.6443 Cl  0  0  0  0  0  0  0  0  0  0  0  0
    6.6242    3.0232   -0.4041 Cl  0  0  0  0  0  0  0  0  0  0  0  0
   -7.9166    1.5919   -0.1496 Cl  0  0  0  0  0  0  0  0  0  0  0  0
    0.6237    0.2572    0.3545 O   0  0  0  0  0  0  0  0  0  0  0  0
   -2.1516    0.5606    0.2726 O   0  0  0  0  0  0  0  0  0  0  0  0
    0.6246   -2.6350   -0.1077 N   0  0  0  0  0  0  0  0  0  0  0  0
   -0.6808   -4.3133   -0.5372 N   0  0  0  0  0  0  0  0  0  0  0  0
    1.7779   -0.4347    0.0132 C   0  0  0  0  0  0  0  0  0  0  0  0
    1.7866   -1.7935   -0.1536 C   0  0  0  0  0  0  0  0  0  0  0  0
    2.9675    0.4065   -0.0468 C   0  0  0  0  0  0  0  0  0  0  0  0
   -0.0208    0.7431   -0.8032 C   0  0  0  0  0  0  0  0  0  0  0  0
    3.1110   -2.5040   -0.4113 C   0  0  0  0  0  0  0  0  0  0  0  0
   -1.2872    1.4713   -0.3958 C   0  0  0  0  0  0  0  0  0  0  0  0
    3.7333    0.6923    1.0836 C   0  0  0  0  0  0  0  0  0  0  0  0
    3.3325    0.9297   -1.2873 C   0  0  0  0  0  0  0  0  0  0  0  0
   -0.4627   -2.3778    0.6220 C   0  0  0  0  0  0  0  0  0  0  0  0
    0.4920   -3.7756   -0.7891 C   0  0  0  0  0  0  0  0  0  0  0  0
    4.8641    1.5017    0.9734 C   0  0  0  0  0  0  0  0  0  0  0  0
    4.4631    1.7390   -1.3974 C   0  0  0  0  0  0  0  0  0  0  0  0
    5.2289    2.0250   -0.2671 C   0  0  0  0  0  0  0  0  0  0  0  0
   -1.2812   -3.4466    0.3414 C   0  0  0  0  0  0  0  0  0  0  0  0
   -3.4967    0.8012    0.1739 C   0  0  0  0  0  0  0  0  0  0  0  0
   -3.9540    2.1066    0.0332 C   0  0  0  0  0  0  0  0  0  0  0  0
   -4.3913   -0.2625    0.2157 C   0  0  0  0  0  0  0  0  0  0  0  0
   -5.3235    2.3516   -0.0669 C   0  0  0  0  0  0  0  0  0  0  0  0
   -5.7608   -0.0175    0.1153 C   0  0  0  0  0  0  0  0  0  0  0  0
   -6.2270    1.2896   -0.0260 C   0  0  0  0  0  0  0  0  0  0  0  0
    0.6164    1.4510   -1.3440 H   0  0  0  0  0  0  0  0  0  0  0  0
   -0.2815   -0.0876   -1.4711 H   0  0  0  0  0  0  0  0  0  0  0  0
    3.1888   -2.7870   -1.4666 H   0  0  0  0  0  0  0  0  0  0  0  0
    3.9955   -1.9125   -0.1636 H   0  0  0  0  0  0  0  0  0  0  0  0
    3.1779   -3.4117    0.1997 H   0  0  0  0  0  0  0  0  0  0  0  0
   -1.0409    2.2860    0.2949 H   0  0  0  0  0  0  0  0  0  0  0  0
   -1.7428    1.8777   -1.3074 H   0  0  0  0  0  0  0  0  0  0  0  0
    2.7574    0.7104   -2.1838 H   0  0  0  0  0  0  0  0  0  0  0  0
   -0.6016   -1.5507    1.3026 H   0  0  0  0  0  0  0  0  0  0  0  0
    1.2295   -4.1985   -1.4586 H   0  0  0  0  0  0  0  0  0  0  0  0
    5.4631    1.7263    1.8534 H   0  0  0  0  0  0  0  0  0  0  0  0
    4.7371    2.1376   -2.3708 H   0  0  0  0  0  0  0  0  0  0  0  0
   -2.2669   -3.6424    0.7377 H   0  0  0  0  0  0  0  0  0  0  0  0
   -3.2869    2.9629    0.0256 H   0  0  0  0  0  0  0  0  0  0  0  0
   -4.0322   -1.2818    0.3256 H   0  0  0  0  0  0  0  0  0  0  0  0
   -5.6733    3.3756   -0.1704 H   0  0  0  0  0  0  0  0  0  0  0  0
   -6.4530   -0.8550    0.1488 H   0  0  0  0  0  0  0  0  0  0  0  0
  1 14  1  0  0  0  0
  2 20  1  0  0  0  0
  3 27  1  0  0  0  0
  4  8  1  0  0  0  0
  4 11  1  0  0  0  0
  5 13  1  0  0  0  0
  5 22  1  0  0  0  0
  6  9  1  0  0  0  0
  6 16  1  0  0  0  0
  6 17  1  0  0  0  0
  7 17  2  0  0  0  0
  7 21  1  0  0  0  0
  8  9  2  0  0  0  0
  8 10  1  0  0  0  0
  9 12  1  0  0  0  0
 10 14  2  0  0  0  0
 10 15  1  0  0  0  0
 11 13  1  0  0  0  0
 11 28  1  0  0  0  0
 11 29  1  0  0  0  0
 12 30  1  0  0  0  0
 12 31  1  0  0  0  0
 12 32  1  0  0  0  0
 13 33  1  0  0  0  0
 13 34  1  0  0  0  0
 14 18  1  0  0  0  0
 15 19  2  0  0  0  0
 15 35  1  0  0  0  0
 16 21  2  0  0  0  0
 16 36  1  0  0  0  0
 17 37  1  0  0  0  0
 18 20  2  0  0  0  0
 18 38  1  0  0  0  0
 19 20  1  0  0  0  0
 19 39  1  0  0  0  0
 21 40  1  0  0  0  0
 22 23  2  0  0  0  0
 22 24  1  0  0  0  0
 23 25  1  0  0  0  0
 23 41  1  0  0  0  0
 24 26  2  0  0  0  0
 24 42  1  0  0  0  0
 25 27  2  0  0  0  0
 25 43  1  0  0  0  0
 26 27  1  0  0  0  0
 26 44  1  0  0  0  0
M  END
> <DATABASE_ID>
DB13684

> <DATABASE_NAME>
drugbank

> <ORIGINAL_SOURCE>
PUBCHEM

> <ORIGINAL_SOURCE_URL>
https://pubchem.ncbi.nlm.nih.gov/rest/pug/compound/inchikey/JMFOSJNGKJCTMJ-ZHZULCJRSA-N/SDF?record_type=3d

> <SMILES>
C\C(N1C=CN=C1)=C(\OCCOC1=CC=C(Cl)C=C1)C1=C(Cl)C=C(Cl)C=C1

> <INCHI_IDENTIFIER>
InChI=1S/C20H17Cl3N2O2/c1-14(25-9-8-24-13-25)20(18-7-4-16(22)12-19(18)23)27-11-10-26-17-5-2-15(21)3-6-17/h2-9,12-13H,10-11H2,1H3/b20-14-

> <INCHI_KEY>
JMFOSJNGKJCTMJ-ZHZULCJRSA-N

> <FORMULA>
C20H17Cl3N2O2

> <MOLECULAR_WEIGHT>
423.72

> <EXACT_MASS>
422.0355609

> <JCHEM_ACCEPTOR_COUNT>
3

> <JCHEM_ATOM_COUNT>
44

> <JCHEM_AVERAGE_POLARIZABILITY>
42.011120226602486

> <JCHEM_BIOAVAILABILITY>
1

> <JCHEM_DONOR_COUNT>
0

> <JCHEM_FORMAL_CHARGE>
0

> <JCHEM_GHOSE_FILTER>
1

> <JCHEM_IUPAC>
1-[(1Z)-1-[2-(4-chlorophenoxy)ethoxy]-1-(2,4-dichlorophenyl)prop-1-en-2-yl]-1H-imidazole

> <ALOGPS_LOGP>
5.87

> <JCHEM_LOGP>
5.074068729

> <ALOGPS_LOGS>
-5.66

> <JCHEM_MDDR_LIKE_RULE>
1

> <JCHEM_NUMBER_OF_RINGS>
3

> <JCHEM_PHYSIOLOGICAL_CHARGE>
0

> <JCHEM_PKA_STRONGEST_BASIC>
6.447188770629418

> <JCHEM_POLAR_SURFACE_AREA>
36.28

> <JCHEM_REFRACTIVITY>
110.79939999999996

> <JCHEM_ROTATABLE_BOND_COUNT>
7

> <JCHEM_RULE_OF_FIVE>
0

> <ALOGPS_SOLUBILITY>
9.18e-04 g/l

> <JCHEM_TRADITIONAL_IUPAC>
omoconazole

> <JCHEM_VEBER_RULE>
1

$$$$
6433427
  -OEChem-10061700293D

 30 31  0     1  0  0  0  0  0999 V2000
    5.9787   -1.0082   -0.0347 S   0  0  0  0  0  0  0  0  0  0  0  0
    3.6473    0.7897    0.9202 O   0  0  0  0  0  0  0  0  0  0  0  0
    2.5323    2.6809    0.2680 O   0  0  0  0  0  0  0  0  0  0  0  0
   -2.8983   -0.5210    0.2725 O   0  0  0  0  0  0  0  0  0  0  0  0
   -6.3585   -0.5656   -0.2309 O   0  5  0  0  0  0  0  0  0  0  0  0
   -5.0322   -1.8973    0.9032 O   0  0  0  0  0  0  0  0  0  0  0  0
    1.5531    0.5635    0.2036 N   0  0  0  0  0  0  0  0  0  0  0  0
    0.3391    0.9217   -0.2342 N   0  0  0  0  0  0  0  0  0  0  0  0
   -5.1982   -0.8799    0.1674 N   0  3  0  0  0  0  0  0  0  0  0  0
    3.3991   -0.6307    0.8167 C   0  0  1  0  0  0  0  0  0  0  0  0
    1.8991   -0.7536    0.6156 C   0  0  0  0  0  0  0  0  0  0  0  0
    4.2035   -1.1803   -0.3526 C   0  0  0  0  0  0  0  0  0  0  0  0
    2.5560    1.4698    0.4344 C   0  0  0  0  0  0  0  0  0  0  0  0
   -0.6092    0.1378    0.1669 C   0  0  0  0  0  0  0  0  0  0  0  0
   -1.9978    0.3581   -0.2021 C   0  0  0  0  0  0  0  0  0  0  0  0
    6.5961   -1.7351   -1.5705 C   0  0  0  0  0  0  0  0  0  0  0  0
   -2.5634    1.3251   -0.9652 C   0  0  0  0  0  0  0  0  0  0  0  0
   -4.0996   -0.1033   -0.2056 C   0  0  0  0  0  0  0  0  0  0  0  0
   -3.9472    1.0284   -0.9726 C   0  0  0  0  0  0  0  0  0  0  0  0
    3.6955   -1.1137    1.7555 H   0  0  0  0  0  0  0  0  0  0  0  0
    1.6138   -1.5119   -0.1196 H   0  0  0  0  0  0  0  0  0  0  0  0
    1.4357   -0.9659    1.5856 H   0  0  0  0  0  0  0  0  0  0  0  0
    3.9707   -0.6315   -1.2715 H   0  0  0  0  0  0  0  0  0  0  0  0
    3.9714   -2.2394   -0.5046 H   0  0  0  0  0  0  0  0  0  0  0  0
   -0.4703   -0.7375    0.8236 H   0  0  0  0  0  0  0  0  0  0  0  0
    7.6892   -1.7199   -1.5621 H   0  0  0  0  0  0  0  0  0  0  0  0
    6.2477   -1.1594   -2.4319 H   0  0  0  0  0  0  0  0  0  0  0  0
    6.2642   -2.7726   -1.6617 H   0  0  0  0  0  0  0  0  0  0  0  0
   -2.0676    2.1466   -1.4622 H   0  0  0  0  0  0  0  0  0  0  0  0
   -4.7311    1.5761   -1.4766 H   0  0  0  0  0  0  0  0  0  0  0  0
  1 12  1  0  0  0  0
  1 16  1  0  0  0  0
  2 10  1  0  0  0  0
  2 13  1  0  0  0  0
  3 13  2  0  0  0  0
  4 15  1  0  0  0  0
  4 18  1  0  0  0  0
  5  9  1  0  0  0  0
  6  9  2  0  0  0  0
  7  8  1  0  0  0  0
  7 11  1  0  0  0  0
  7 13  1  0  0  0  0
  8 14  2  0  0  0  0
  9 18  1  0  0  0  0
 10 11  1  0  0  0  0
 10 12  1  0  0  0  0
 10 20  1  0  0  0  0
 11 21  1  0  0  0  0
 11 22  1  0  0  0  0
 12 23  1  0  0  0  0
 12 24  1  0  0  0  0
 14 15  1  0  0  0  0
 14 25  1  0  0  0  0
 15 17  2  0  0  0  0
 16 26  1  0  0  0  0
 16 27  1  0  0  0  0
 16 28  1  0  0  0  0
 17 19  1  0  0  0  0
 17 29  1  0  0  0  0
 18 19  2  0  0  0  0
 19 30  1  0  0  0  0
M  CHG  2   5  -1   9   1
M  END
> <DATABASE_ID>
DB13724

> <DATABASE_NAME>
drugbank

> <ORIGINAL_SOURCE>
PUBCHEM

> <ORIGINAL_SOURCE_URL>
https://pubchem.ncbi.nlm.nih.gov/rest/pug/compound/inchikey/SRQKTCXJCCHINN-NYYWCZLTSA-N/SDF?record_type=3d

> <SMILES>
CSCC1CN(\N=C\C2=CC=C(O2)[N+]([O-])=O)C(=O)O1

> <INCHI_IDENTIFIER>
InChI=1S/C10H11N3O5S/c1-19-6-8-5-12(10(14)18-8)11-4-7-2-3-9(17-7)13(15)16/h2-4,8H,5-6H2,1H3/b11-4+

> <INCHI_KEY>
SRQKTCXJCCHINN-NYYWCZLTSA-N

> <FORMULA>
C10H11N3O5S

> <MOLECULAR_WEIGHT>
285.27

> <EXACT_MASS>
285.04194164

> <JCHEM_ACCEPTOR_COUNT>
4

> <JCHEM_ATOM_COUNT>
30

> <JCHEM_AVERAGE_POLARIZABILITY>
27.284265404565083

> <JCHEM_BIOAVAILABILITY>
1

> <JCHEM_DONOR_COUNT>
0

> <JCHEM_FORMAL_CHARGE>
0

> <JCHEM_GHOSE_FILTER>
1

> <JCHEM_IUPAC>
5-[(methylsulfanyl)methyl]-3-[(E)-[(5-nitrofuran-2-yl)methylidene]amino]-1,3-oxazolidin-2-one

> <ALOGPS_LOGP>
0.95

> <JCHEM_LOGP>
1.7220606096666669

> <ALOGPS_LOGS>
-3.42

> <JCHEM_MDDR_LIKE_RULE>
0

> <JCHEM_NUMBER_OF_RINGS>
2

> <JCHEM_PHYSIOLOGICAL_CHARGE>
0

> <JCHEM_PKA_STRONGEST_BASIC>
-2.105191168246053

> <JCHEM_POLAR_SURFACE_AREA>
98.18

> <JCHEM_REFRACTIVITY>
66.8771

> <JCHEM_ROTATABLE_BOND_COUNT>
5

> <JCHEM_RULE_OF_FIVE>
1

> <ALOGPS_SOLUBILITY>
1.09e-01 g/l

> <JCHEM_TRADITIONAL_IUPAC>
omnes

> <JCHEM_VEBER_RULE>
0

$$$$

  Mrv1718006141815302D          

 78 81  0  0  0  0            999 V2000
    2.1605    4.1662    0.0000 C   0  0  0  0  0  0  0  0  0  0  0  0
    2.6327    3.2331    0.0000 N   0  0  0  0  0  0  0  0  0  0  0  0
    2.2202    2.5186    0.0000 C   0  0  2  0  0  0  0  0  0  0  0  0
    2.6326    1.8041    0.0000 C   0  0  0  0  0  0  0  0  0  0  0  0
    2.2201    1.0897    0.0000 N   0  0  0  0  0  0  0  0  0  0  0  0
    2.6326    0.3752    0.0000 C   0  0  2  0  0  0  0  0  0  0  0  0
    2.2201   -0.3392    0.0000 C   0  0  0  0  0  0  0  0  0  0  0  0
    2.6326   -1.0537    0.0000 N   0  0  0  0  0  0  0  0  0  0  0  0
    1.0174    2.5186    0.0000 C   0  0  0  0  0  0  0  0  0  0  0  0
   -0.4291    3.9456    0.0000 N   0  0  0  0  0  0  0  0  0  0  0  0
   -2.8488    4.2330    0.0000 C   0  0  2  0  0  0  0  0  0  0  0  0
   -3.3507    3.2701    0.0000 O   0  0  0  0  0  0  0  0  0  0  0  0
   -2.9382    2.5556    0.0000 C   0  0  0  0  0  0  0  0  0  0  0  0
   -3.3507    1.8412    0.0000 C   0  0  1  0  0  0  0  0  0  0  0  0
   -2.9382    1.1267    0.0000 N   0  0  0  0  0  0  0  0  0  0  0  0
   -3.3507    0.4122    0.0000 C   0  0  0  0  0  0  0  0  0  0  0  0
   -2.9382   -0.3022    0.0000 C   0  0  1  0  0  0  0  0  0  0  0  0
   -3.3507   -1.0166    0.0000 N   0  0  0  0  0  0  0  0  0  0  0  0
   -2.9382   -1.7311    0.0000 C   0  0  0  0  0  0  0  0  0  0  0  0
   -3.3507   -2.4456    0.0000 C   0  0  1  0  0  0  0  0  0  0  0  0
   -1.6119    4.6016    0.0000 C   0  0  0  0  0  0  0  0  0  0  0  0
    0.7139    4.5022    0.0000 C   0  0  0  0  0  0  0  0  0  0  0  0
    2.7118    4.7507    0.0000 O   0  0  0  0  0  0  0  0  0  0  0  0
   -1.6119    5.4962    0.0000 O   0  0  0  0  0  0  0  0  0  0  0  0
    0.7163    5.3849    0.0000 C   0  0  0  0  0  0  0  0  0  0  0  0
    1.2812    5.8161    0.0000 C   0  0  0  0  0  0  0  0  0  0  0  0
   -0.1442    5.7170    0.0000 C   0  0  0  0  0  0  0  0  0  0  0  0
    3.4577    1.8041    0.0000 O   0  0  0  0  0  0  0  0  0  0  0  0
    4.0838    0.3752    0.0000 C   0  0  0  0  0  0  0  0  0  0  0  0
    1.3951   -0.3391    0.0000 O   0  0  0  0  0  0  0  0  0  0  0  0
   -2.1132    2.5556    0.0000 O   0  0  0  0  0  0  0  0  0  0  0  0
   -4.1757    1.8412    0.0000 C   0  0  0  0  0  0  0  0  0  0  0  0
   -4.5882    2.5556    0.0000 C   0  0  0  0  0  0  0  0  0  0  0  0
   -4.5882    1.1267    0.0000 C   0  0  0  0  0  0  0  0  0  0  0  0
   -2.1132    1.1267    0.0000 C   0  0  0  0  0  0  0  0  0  0  0  0
   -4.1757    0.4122    0.0000 O   0  0  0  0  0  0  0  0  0  0  0  0
   -2.0536   -0.0537    0.0000 C   0  0  0  0  0  0  0  0  0  0  0  0
   -1.3926   -0.6786    0.0000 C   0  0  0  0  0  0  0  0  0  0  0  0
   -0.4483   -0.6787    0.0000 C   0  0  0  0  0  0  0  0  0  0  0  0
   -1.3975   -1.4826    0.0000 C   0  0  0  0  0  0  0  0  0  0  0  0
    0.6049    1.8041    0.0000 C   0  0  0  0  0  0  0  0  0  0  0  0
    1.0174    1.0897    0.0000 C   0  0  0  0  0  0  0  0  0  0  0  0
   -0.2200    1.8041    0.0000 C   0  0  0  0  0  0  0  0  0  0  0  0
    0.6049    0.3752    0.0000 C   0  0  0  0  0  0  0  0  0  0  0  0
   -0.6325    1.0897    0.0000 C   0  0  0  0  0  0  0  0  0  0  0  0
   -0.2200    0.3752    0.0000 C   0  0  0  0  0  0  0  0  0  0  0  0
   -2.1132   -1.7311    0.0000 O   0  0  0  0  0  0  0  0  0  0  0  0
   -2.9382   -3.1600    0.0000 N   0  0  0  0  0  0  0  0  0  0  0  0
    4.4963    1.0897    0.0000 C   0  0  0  0  0  0  0  0  0  0  0  0
    4.0839    1.8041    0.0000 C   0  0  0  0  0  0  0  0  0  0  0  0
    5.3214    1.0897    0.0000 C   0  0  0  0  0  0  0  0  0  0  0  0
    4.4964    2.5186    0.0000 C   0  0  0  0  0  0  0  0  0  0  0  0
    5.7339    1.8041    0.0000 C   0  0  0  0  0  0  0  0  0  0  0  0
    5.3214    2.5186    0.0000 C   0  0  0  0  0  0  0  0  0  0  0  0
    3.4172   -0.7987    0.0000 C   0  0  0  0  0  0  0  0  0  0  0  0
    2.6326   -1.8787    0.0000 C   0  0  1  0  0  0  0  0  0  0  0  0
    3.9022   -1.4662    0.0000 C   0  0  0  0  0  0  0  0  0  0  0  0
    3.4174   -2.1337    0.0000 C   0  0  0  0  0  0  0  0  0  0  0  0
    1.9652   -2.3636    0.0000 C   0  0  0  0  0  0  0  0  0  0  0  0
    1.2115   -2.0280    0.0000 O   0  0  0  0  0  0  0  0  0  0  0  0
    1.9520   -3.2139    0.0000 N   0  0  0  0  0  0  0  0  0  0  0  0
   -4.1757   -2.4456    0.0000 C   0  0  0  0  0  0  0  0  0  0  0  0
   -4.5882   -1.7311    0.0000 C   0  0  0  0  0  0  0  0  0  0  0  0
   -4.5882   -3.1600    0.0000 C   0  0  0  0  0  0  0  0  0  0  0  0
   -1.2640   -3.1712    0.0000 C   0  0  0  0  0  0  0  0  0  0  0  0
    0.3760   -3.7576    0.0000 C   0  0  1  0  0  0  0  0  0  0  0  0
   -3.5700   -4.0359    0.0000 C   0  0  0  0  0  0  0  0  0  0  0  0
   -0.9261   -2.1474    0.0000 O   0  0  0  0  0  0  0  0  0  0  0  0
    0.3713   -4.5826    0.0000 C   0  0  1  0  0  0  0  0  0  0  0  0
   -0.3453   -4.9911    0.0000 C   0  0  0  0  0  0  0  0  0  0  0  0
    1.0835   -4.9991    0.0000 C   0  0  0  0  0  0  0  0  0  0  0  0
   -1.0575   -4.5745    0.0000 C   0  0  0  0  0  0  0  0  0  0  0  0
   -0.3500   -5.8161    0.0000 C   0  0  0  0  0  0  0  0  0  0  0  0
   -4.0001    4.5612    0.0000 C   0  0  2  0  0  0  0  0  0  0  0  0
   -4.0120    5.4608    0.0000 C   0  0  0  0  0  0  0  0  0  0  0  0
   -4.8113    4.2059    0.0000 C   0  0  0  0  0  0  0  0  0  0  0  0
   -5.7339    4.6209    0.0000 C   0  0  0  0  0  0  0  0  0  0  0  0
    1.5985    1.9278    0.0000 C   0  0  0  0  0  0  0  0  0  0  0  0
  2  1  1  0  0  0  0
  3  2  1  0  0  0  0
  4  3  1  0  0  0  0
  5  4  1  0  0  0  0
  6  5  1  0  0  0  0
  7  6  1  0  0  0  0
  8  7  1  0  0  0  0
  3  9  1  6  0  0  0
 11 12  1  1  0  0  0
 13 12  1  0  0  0  0
 14 13  1  0  0  0  0
 15 14  1  0  0  0  0
 16 15  1  0  0  0  0
 17 16  1  0  0  0  0
 18 17  1  0  0  0  0
 19 18  1  0  0  0  0
 20 19  1  0  0  0  0
 11 21  1  0  0  0  0
 10 21  1  0  0  0  0
 10 22  1  0  0  0  0
  1 22  1  0  0  0  0
  1 23  2  0  0  0  0
 21 24  2  0  0  0  0
 22 25  1  0  0  0  0
 25 26  1  0  0  0  0
 25 27  1  0  0  0  0
  4 28  2  0  0  0  0
  6 29  1  1  0  0  0
  7 30  2  0  0  0  0
 13 31  2  0  0  0  0
 14 32  1  1  0  0  0
 32 33  1  0  0  0  0
 32 34  1  0  0  0  0
 15 35  1  0  0  0  0
 16 36  2  0  0  0  0
 17 37  1  6  0  0  0
 37 38  1  0  0  0  0
 38 39  1  0  0  0  0
 38 40  1  0  0  0  0
  9 41  1  0  0  0  0
 42 41  1  0  0  0  0
 43 41  2  0  0  0  0
 44 42  2  0  0  0  0
 45 43  1  0  0  0  0
 46 44  1  0  0  0  0
 46 45  2  0  0  0  0
 19 47  2  0  0  0  0
 20 48  1  0  0  0  0
 50 49  1  0  0  0  0
 51 49  2  0  0  0  0
 52 50  2  0  0  0  0
 53 51  1  0  0  0  0
 54 52  1  0  0  0  0
 54 53  2  0  0  0  0
 29 49  1  0  0  0  0
 55  8  1  0  0  0  0
 56  8  1  0  0  0  0
 57 55  1  0  0  0  0
 58 56  1  0  0  0  0
 58 57  1  0  0  0  0
 56 59  1  1  0  0  0
 59 60  2  0  0  0  0
 59 61  1  0  0  0  0
 20 62  1  1  0  0  0
 62 63  1  0  0  0  0
 62 64  1  0  0  0  0
 48 65  1  0  0  0  0
 65 66  1  0  0  0  0
 66 61  1  6  0  0  0
 48 67  1  0  0  0  0
 65 68  2  0  0  0  0
 66 69  1  0  0  0  0
 69 70  1  0  0  0  0
 69 71  1  6  0  0  0
 70 72  1  0  0  0  0
 70 73  1  0  0  0  0
 11 74  1  0  0  0  0
 74 75  1  1  0  0  0
 74 76  1  0  0  0  0
 76 77  1  0  0  0  0
  5 78  1  0  0  0  0
M  END
> <DATABASE_ID>
DB14058

> <DATABASE_NAME>
drugbank

> <SMILES>
CC[C@@H](C)[C@@H]1OC(=O)[C@H](C(C)C)N(C)C(=O)[C@H](CC(C)C)NC(=O)[C@H](C(C)C)N(C)C(=O)[C@H](NC(=O)[C@@H]2CCCN2C(=O)[C@H](CC2=CC=CC=C2)N(C)C(=O)[C@H](CC2=CC=CC=C2)NC(=O)C(NC1=O)C(C)C)[C@H](C)C(C)C

> <INCHI_IDENTIFIER>
InChI=1S/C60H92N8O10/c1-17-39(12)51-55(72)63-47(36(6)7)53(70)61-44(32-41-25-20-18-21-26-41)56(73)65(14)46(33-42-27-22-19-23-28-42)58(75)68-30-24-29-45(68)52(69)64-48(40(13)35(4)5)59(76)66(15)49(37(8)9)54(71)62-43(31-34(2)3)57(74)67(16)50(38(10)11)60(77)78-51/h18-23,25-28,34-40,43-51H,17,24,29-33H2,1-16H3,(H,61,70)(H,62,71)(H,63,72)(H,64,69)/t39-,40-,43+,44+,45+,46+,47?,48-,49+,50+,51+/m1/s1

> <INCHI_KEY>
YHSKJPXGXIYLHB-OTNPUQRPSA-N

> <FORMULA>
C60H92N8O10

> <MOLECULAR_WEIGHT>
1085.442

> <EXACT_MASS>
1084.693641194

> <JCHEM_ACCEPTOR_COUNT>
9

> <JCHEM_ATOM_COUNT>
170

> <JCHEM_AVERAGE_POLARIZABILITY>
117.99835287237158

> <JCHEM_BIOAVAILABILITY>
0

> <JCHEM_DONOR_COUNT>
4

> <JCHEM_FORMAL_CHARGE>
0

> <JCHEM_GHOSE_FILTER>
0

> <JCHEM_IUPAC>
(3R,6S,9S,12S,15S,21S,24S,29aS)-21,24-dibenzyl-15-[(2R)-butan-2-yl]-5,11,23-trimethyl-3-[(2R)-3-methylbutan-2-yl]-9-(2-methylpropyl)-6,12,18-tris(propan-2-yl)-octacosahydropyrrolo[1,2-m]1-oxa-4,7,10,13,16,19,22,25-octaazacycloheptacosane-1,4,7,10,13,16,19,22,25-nonone

> <ALOGPS_LOGP>
5.14

> <JCHEM_LOGP>
7.024578827333336

> <ALOGPS_LOGS>
-5.44

> <JCHEM_MDDR_LIKE_RULE>
1

> <JCHEM_NUMBER_OF_RINGS>
4

> <JCHEM_PHYSIOLOGICAL_CHARGE>
0

> <JCHEM_PKA>
12.17925414945101

> <JCHEM_PKA_STRONGEST_ACIDIC>
11.763028859800674

> <JCHEM_PKA_STRONGEST_BASIC>
-2.3390497282172937

> <JCHEM_POLAR_SURFACE_AREA>
223.93999999999997

> <JCHEM_REFRACTIVITY>
297.7461999999999

> <JCHEM_ROTATABLE_BOND_COUNT>
13

> <JCHEM_RULE_OF_FIVE>
0

> <ALOGPS_SOLUBILITY>
3.95e-03 g/l

> <JCHEM_TRADITIONAL_IUPAC>
aureobasidin A

> <JCHEM_VEBER_RULE>
0

> <DRUGBANK_ID>
DB14058

> <DRUG_GROUPS>
experimental

> <GENERIC_NAME>
Basifungin

> <SYNONYMS>
Aureobasidin A; Basifungin

$$$$
91885568
  -OEChem-05201911033D

 64 68  0     0  0  0  0  0  0999 V2000
  -11.0731    0.3613    0.4516 F   0  0  0  0  0  0  0  0  0  0  0  0
    5.4955   -1.7001   -2.0838 O   0  0  0  0  0  0  0  0  0  0  0  0
    3.2780   -0.0170   -2.4853 O   0  0  0  0  0  0  0  0  0  0  0  0
   -2.8480   -0.5270   -0.1006 N   0  0  0  0  0  0  0  0  0  0  0  0
   -5.7032   -0.2185    0.0907 N   0  0  0  0  0  0  0  0  0  0  0  0
    6.6734   -1.2094    0.5966 N   0  0  0  0  0  0  0  0  0  0  0  0
   -7.8137   -1.2014    0.1742 N   0  0  0  0  0  0  0  0  0  0  0  0
   -7.5485    1.1917    0.2729 N   0  0  0  0  0  0  0  0  0  0  0  0
    2.6842   -1.1279   -0.4725 N   0  0  0  0  0  0  0  0  0  0  0  0
   -3.6726   -1.5382    0.5608 C   0  0  0  0  0  0  0  0  0  0  0  0
   -3.5186    0.6458   -0.6615 C   0  0  0  0  0  0  0  0  0  0  0  0
   -4.8176    0.9458    0.0915 C   0  0  0  0  0  0  0  0  0  0  0  0
   -5.0935   -1.5444   -0.0096 C   0  0  0  0  0  0  0  0  0  0  0  0
   -1.4668   -0.6762   -0.1931 C   0  0  0  0  0  0  0  0  0  0  0  0
   -7.0844   -0.0693    0.1836 C   0  0  0  0  0  0  0  0  0  0  0  0
   -0.7727   -1.3734    0.7957 C   0  0  0  0  0  0  0  0  0  0  0  0
   -0.7773   -0.1291   -1.2752 C   0  0  0  0  0  0  0  0  0  0  0  0
    0.6108   -1.5237    0.7024 C   0  0  0  0  0  0  0  0  0  0  0  0
    0.6063   -0.2794   -1.3686 C   0  0  0  0  0  0  0  0  0  0  0  0
    1.3004   -0.9767   -0.3796 C   0  0  0  0  0  0  0  0  0  0  0  0
    5.6580   -0.5259   -0.0198 C   0  0  0  0  0  0  0  0  0  0  0  0
    5.4415    0.6362    0.6873 C   0  0  0  0  0  0  0  0  0  0  0  0
    7.1078   -0.5017    1.6868 C   0  0  0  0  0  0  0  0  0  0  0  0
    6.3586    0.6514    1.7670 C   0  0  0  0  0  0  0  0  0  0  0  0
    4.9570   -1.0097   -1.2307 C   0  0  0  0  0  0  0  0  0  0  0  0
    4.4466    1.6102    0.3367 C   0  0  0  0  0  0  0  0  0  0  0  0
    3.5234   -0.6492   -1.4717 C   0  0  0  0  0  0  0  0  0  0  0  0
    7.2048   -2.4848    0.1636 C   0  0  0  0  0  0  0  0  0  0  0  0
   -9.1475   -1.0200    0.2652 C   0  0  0  0  0  0  0  0  0  0  0  0
   -8.8904    1.2997    0.3608 C   0  0  0  0  0  0  0  0  0  0  0  0
    8.1987   -0.9846    2.5585 C   0  0  0  0  0  0  0  0  0  0  0  0
   -9.7481    0.2187    0.3619 C   0  0  0  0  0  0  0  0  0  0  0  0
    3.4306    1.9242    1.2393 C   0  0  0  0  0  0  0  0  0  0  0  0
    4.4957    2.2421   -0.9057 C   0  0  0  0  0  0  0  0  0  0  0  0
    2.4634    2.8702    0.8995 C   0  0  0  0  0  0  0  0  0  0  0  0
    3.5286    3.1881   -1.2457 C   0  0  0  0  0  0  0  0  0  0  0  0
    2.5125    3.5021   -0.3431 C   0  0  0  0  0  0  0  0  0  0  0  0
   -3.2521   -2.5416    0.4197 H   0  0  0  0  0  0  0  0  0  0  0  0
   -3.7351    0.4670   -1.7221 H   0  0  0  0  0  0  0  0  0  0  0  0
   -3.7041   -1.3324    1.6380 H   0  0  0  0  0  0  0  0  0  0  0  0
   -2.8795    1.5347   -0.5913 H   0  0  0  0  0  0  0  0  0  0  0  0
   -4.5989    1.2279    1.1288 H   0  0  0  0  0  0  0  0  0  0  0  0
   -5.2844    1.8093   -0.3970 H   0  0  0  0  0  0  0  0  0  0  0  0
   -5.0788   -1.8524   -1.0623 H   0  0  0  0  0  0  0  0  0  0  0  0
   -5.6646   -2.2955    0.5491 H   0  0  0  0  0  0  0  0  0  0  0  0
   -1.2774   -1.7983    1.6590 H   0  0  0  0  0  0  0  0  0  0  0  0
   -1.2905    0.4066   -2.0692 H   0  0  0  0  0  0  0  0  0  0  0  0
    1.1399   -2.0662    1.4819 H   0  0  0  0  0  0  0  0  0  0  0  0
    1.0769    0.1682   -2.2337 H   0  0  0  0  0  0  0  0  0  0  0  0
    6.4645    1.4182    2.5229 H   0  0  0  0  0  0  0  0  0  0  0  0
    3.1168   -1.6516    0.2855 H   0  0  0  0  0  0  0  0  0  0  0  0
    7.8239   -2.3135   -0.7206 H   0  0  0  0  0  0  0  0  0  0  0  0
    7.8038   -2.9443    0.9514 H   0  0  0  0  0  0  0  0  0  0  0  0
    6.3720   -3.1547   -0.0665 H   0  0  0  0  0  0  0  0  0  0  0  0
   -9.7405   -1.9281    0.2584 H   0  0  0  0  0  0  0  0  0  0  0  0
   -9.2705    2.3131    0.4331 H   0  0  0  0  0  0  0  0  0  0  0  0
    7.9073   -1.9024    3.0794 H   0  0  0  0  0  0  0  0  0  0  0  0
    9.1101   -1.1766    1.9832 H   0  0  0  0  0  0  0  0  0  0  0  0
    8.4453   -0.2385    3.3216 H   0  0  0  0  0  0  0  0  0  0  0  0
    3.3732    1.4387    2.2107 H   0  0  0  0  0  0  0  0  0  0  0  0
    5.2864    2.0232   -1.6197 H   0  0  0  0  0  0  0  0  0  0  0  0
    1.6709    3.1130    1.6012 H   0  0  0  0  0  0  0  0  0  0  0  0
    3.5678    3.6816   -2.2123 H   0  0  0  0  0  0  0  0  0  0  0  0
    1.7591    4.2381   -0.6082 H   0  0  0  0  0  0  0  0  0  0  0  0
  1 32  1  0  0  0  0
  2 25  2  0  0  0  0
  3 27  2  0  0  0  0
  4 10  1  0  0  0  0
  4 11  1  0  0  0  0
  4 14  1  0  0  0  0
  5 12  1  0  0  0  0
  5 13  1  0  0  0  0
  5 15  1  0  0  0  0
  6 21  1  0  0  0  0
  6 23  1  0  0  0  0
  6 28  1  0  0  0  0
  7 15  2  0  0  0  0
  7 29  1  0  0  0  0
  8 15  1  0  0  0  0
  8 30  2  0  0  0  0
  9 20  1  0  0  0  0
  9 27  1  0  0  0  0
  9 51  1  0  0  0  0
 10 13  1  0  0  0  0
 10 38  1  0  0  0  0
 10 40  1  0  0  0  0
 11 12  1  0  0  0  0
 11 39  1  0  0  0  0
 11 41  1  0  0  0  0
 12 42  1  0  0  0  0
 12 43  1  0  0  0  0
 13 44  1  0  0  0  0
 13 45  1  0  0  0  0
 14 16  2  0  0  0  0
 14 17  1  0  0  0  0
 16 18  1  0  0  0  0
 16 46  1  0  0  0  0
 17 19  2  0  0  0  0
 17 47  1  0  0  0  0
 18 20  2  0  0  0  0
 18 48  1  0  0  0  0
 19 20  1  0  0  0  0
 19 49  1  0  0  0  0
 21 22  2  0  0  0  0
 21 25  1  0  0  0  0
 22 24  1  0  0  0  0
 22 26  1  0  0  0  0
 23 24  2  0  0  0  0
 23 31  1  0  0  0  0
 24 50  1  0  0  0  0
 25 27  1  0  0  0  0
 26 33  2  0  0  0  0
 26 34  1  0  0  0  0
 28 52  1  0  0  0  0
 28 53  1  0  0  0  0
 28 54  1  0  0  0  0
 29 32  2  0  0  0  0
 29 55  1  0  0  0  0
 30 32  1  0  0  0  0
 30 56  1  0  0  0  0
 31 57  1  0  0  0  0
 31 58  1  0  0  0  0
 31 59  1  0  0  0  0
 33 35  1  0  0  0  0
 33 60  1  0  0  0  0
 34 36  2  0  0  0  0
 34 61  1  0  0  0  0
 35 37  2  0  0  0  0
 35 62  1  0  0  0  0
 36 37  1  0  0  0  0
 36 63  1  0  0  0  0
 37 64  1  0  0  0  0
M  END
> <DATABASE_ID>
DB15245

> <DATABASE_NAME>
drugbank

> <ORIGINAL_SOURCE>
PUBCHEM

> <ORIGINAL_SOURCE_URL>
https://pubchem.ncbi.nlm.nih.gov/rest/pug/compound/inchikey/SUFPWYYDCOKDLL-UHFFFAOYSA-N/SDF?record_type=3d

> <SMILES>
CN1C(C)=CC(=C1C(=O)C(=O)NC1=CC=C(C=C1)N1CCN(CC1)C1=NC=C(F)C=N1)C1=CC=CC=C1

> <INCHI_IDENTIFIER>
InChI=1S/C28H27FN6O2/c1-19-16-24(20-6-4-3-5-7-20)25(33(19)2)26(36)27(37)32-22-8-10-23(11-9-22)34-12-14-35(15-13-34)28-30-17-21(29)18-31-28/h3-11,16-18H,12-15H2,1-2H3,(H,32,37)

> <INCHI_KEY>
SUFPWYYDCOKDLL-UHFFFAOYSA-N

> <FORMULA>
C28H27FN6O2

> <MOLECULAR_WEIGHT>
498.562

> <EXACT_MASS>
498.217952296

> <JCHEM_ACCEPTOR_COUNT>
6

> <JCHEM_ATOM_COUNT>
64

> <JCHEM_AVERAGE_POLARIZABILITY>
52.98638503315574

> <JCHEM_BIOAVAILABILITY>
1

> <JCHEM_DONOR_COUNT>
1

> <JCHEM_FORMAL_CHARGE>
0

> <JCHEM_GHOSE_FILTER>
0

> <JCHEM_IUPAC>
2-(1,5-dimethyl-3-phenyl-1H-pyrrol-2-yl)-N-{4-[4-(5-fluoropyrimidin-2-yl)piperazin-1-yl]phenyl}-2-oxoacetamide

> <ALOGPS_LOGP>
4.17

> <JCHEM_LOGP>
4.739398609333334

> <ALOGPS_LOGS>
-4.55

> <JCHEM_MDDR_LIKE_RULE>
1

> <JCHEM_NUMBER_OF_RINGS>
5

> <JCHEM_PHYSIOLOGICAL_CHARGE>
0

> <JCHEM_PKA_STRONGEST_ACIDIC>
12.287209412142646

> <JCHEM_PKA_STRONGEST_BASIC>
2.6578712439674224

> <JCHEM_POLAR_SURFACE_AREA>
83.36

> <JCHEM_REFRACTIVITY>
144.15579999999994

> <JCHEM_ROTATABLE_BOND_COUNT>
6

> <JCHEM_RULE_OF_FIVE>
1

> <ALOGPS_SOLUBILITY>
1.42e-02 g/l

> <JCHEM_TRADITIONAL_IUPAC>
(2R)-14-fluoro-2-methyl-6,9,10,19-tetraazapentacyclo[14.2.1.0^{2,6}.0^{8,18}.0^{12,17}]nonadeca-1(18),8,12(17),13,15-pentaen-11-one

> <JCHEM_VEBER_RULE>
0

$$$$
21704
  -OEChem-10051719093D

 32 34  0     1  0  0  0  0  0999 V2000
    1.6129    0.2039    1.0380 O   0  0  0  0  0  0  0  0  0  0  0  0
    1.2876   -0.4886   -1.8957 O   0  0  0  0  0  0  0  0  0  0  0  0
    4.0666   -1.5204    0.1480 O   0  0  0  0  0  0  0  0  0  0  0  0
    2.3692    2.8702    0.7606 O   0  0  0  0  0  0  0  0  0  0  0  0
   -0.2806   -1.0797    0.3796 N   0  0  0  0  0  0  0  0  0  0  0  0
   -2.3558   -1.9098    0.3990 N   0  0  0  0  0  0  0  0  0  0  0  0
   -0.7770    1.2504   -0.1005 N   0  0  0  0  0  0  0  0  0  0  0  0
   -3.1780    1.6214   -0.3326 N   0  0  0  0  0  0  0  0  0  0  0  0
   -4.7790   -0.1421   -0.0998 N   0  0  0  0  0  0  0  0  0  0  0  0
    1.9227   -1.2106   -0.8484 C   0  0  2  0  0  0  0  0  0  0  0  0
    1.1744   -1.0427    0.4706 C   0  0  1  0  0  0  0  0  0  0  0  0
    3.2532   -0.5617   -0.5248 C   0  0  1  0  0  0  0  0  0  0  0  0
    2.8814    0.5577    0.4498 C   0  0  1  0  0  0  0  0  0  0  0  0
    2.7219    1.9137   -0.2234 C   0  0  0  0  0  0  0  0  0  0  0  0
   -1.1188   -0.0277    0.1217 C   0  0  0  0  0  0  0  0  0  0  0  0
   -1.0764   -2.1880    0.5378 C   0  0  0  0  0  0  0  0  0  0  0  0
   -2.3969   -0.5631    0.1387 C   0  0  0  0  0  0  0  0  0  0  0  0
   -3.4497    0.3146   -0.0999 C   0  0  0  0  0  0  0  0  0  0  0  0
   -1.8778    2.0025   -0.3186 C   0  0  0  0  0  0  0  0  0  0  0  0
    1.9911   -2.2637   -1.1396 H   0  0  0  0  0  0  0  0  0  0  0  0
    1.4690   -1.8257    1.1810 H   0  0  0  0  0  0  0  0  0  0  0  0
    3.7991   -0.2034   -1.4030 H   0  0  0  0  0  0  0  0  0  0  0  0
    3.5979    0.6387    1.2754 H   0  0  0  0  0  0  0  0  0  0  0  0
    1.9264    1.9029   -0.9738 H   0  0  0  0  0  0  0  0  0  0  0  0
    3.6580    2.2260   -0.6966 H   0  0  0  0  0  0  0  0  0  0  0  0
    1.8398   -0.5823   -2.6906 H   0  0  0  0  0  0  0  0  0  0  0  0
    4.8987   -1.0778    0.3877 H   0  0  0  0  0  0  0  0  0  0  0  0
   -0.6652   -3.1654    0.7503 H   0  0  0  0  0  0  0  0  0  0  0  0
    2.2767    3.7261    0.3085 H   0  0  0  0  0  0  0  0  0  0  0  0
   -1.6970    3.0550   -0.5087 H   0  0  0  0  0  0  0  0  0  0  0  0
   -4.9843   -1.1167    0.0739 H   0  0  0  0  0  0  0  0  0  0  0  0
   -5.5267    0.5151   -0.2755 H   0  0  0  0  0  0  0  0  0  0  0  0
  1 11  1  0  0  0  0
  1 13  1  0  0  0  0
  2 10  1  0  0  0  0
  2 26  1  0  0  0  0
  3 12  1  0  0  0  0
  3 27  1  0  0  0  0
  4 14  1  0  0  0  0
  4 29  1  0  0  0  0
  5 11  1  0  0  0  0
  5 15  1  0  0  0  0
  5 16  1  0  0  0  0
  6 16  2  0  0  0  0
  6 17  1  0  0  0  0
  7 15  2  0  0  0  0
  7 19  1  0  0  0  0
  8 18  1  0  0  0  0
  8 19  2  0  0  0  0
  9 18  1  0  0  0  0
  9 31  1  0  0  0  0
  9 32  1  0  0  0  0
 10 11  1  0  0  0  0
 10 12  1  0  0  0  0
 10 20  1  0  0  0  0
 11 21  1  0  0  0  0
 12 13  1  0  0  0  0
 12 22  1  0  0  0  0
 13 14  1  0  0  0  0
 13 23  1  0  0  0  0
 14 24  1  0  0  0  0
 14 25  1  0  0  0  0
 15 17  1  0  0  0  0
 16 28  1  0  0  0  0
 17 18  2  0  0  0  0
 19 30  1  0  0  0  0
M  END
> <DATABASE_ID>
DB00194

> <DATABASE_NAME>
drugbank

> <ORIGINAL_SOURCE>
PUBCHEM

> <ORIGINAL_SOURCE_URL>
https://pubchem.ncbi.nlm.nih.gov/rest/pug/compound/inchikey/OIRDTQYFTABQOQ-UHTZMRCNSA-N/SDF?record_type=3d

> <SMILES>
NC1=NC=NC2=C1N=CN2[C@@H]1O[C@H](CO)[C@@H](O)[C@@H]1O

> <INCHI_IDENTIFIER>
InChI=1S/C10H13N5O4/c11-8-5-9(13-2-12-8)15(3-14-5)10-7(18)6(17)4(1-16)19-10/h2-4,6-7,10,16-18H,1H2,(H2,11,12,13)/t4-,6-,7+,10-/m1/s1

> <INCHI_KEY>
OIRDTQYFTABQOQ-UHTZMRCNSA-N

> <FORMULA>
C10H13N5O4

> <MOLECULAR_WEIGHT>
267.2413

> <EXACT_MASS>
267.096753929

> <JCHEM_ACCEPTOR_COUNT>
8

> <JCHEM_AVERAGE_POLARIZABILITY>
24.491812595571652

> <JCHEM_BIOAVAILABILITY>
1

> <JCHEM_DONOR_COUNT>
4

> <JCHEM_FORMAL_CHARGE>
0

> <JCHEM_GHOSE_FILTER>
0

> <JCHEM_IUPAC>
(2R,3S,4S,5R)-2-(6-amino-9H-purin-9-yl)-5-(hydroxymethyl)oxolane-3,4-diol

> <ALOGPS_LOGP>
-1.21

> <JCHEM_LOGP>
-2.0909638716666668

> <ALOGPS_LOGS>
-1.28

> <JCHEM_MDDR_LIKE_RULE>
0

> <JCHEM_NUMBER_OF_RINGS>
3

> <JCHEM_PHYSIOLOGICAL_CHARGE>
0

> <JCHEM_PKA>
13.891216627250436

> <JCHEM_PKA_STRONGEST_ACIDIC>
12.454003289052789

> <JCHEM_PKA_STRONGEST_BASIC>
4.9884408144871495

> <JCHEM_POLAR_SURFACE_AREA>
139.54

> <JCHEM_REFRACTIVITY>
63.1956

> <JCHEM_ROTATABLE_BOND_COUNT>
2

> <JCHEM_RULE_OF_FIVE>
1

> <ALOGPS_SOLUBILITY>
1.40e+01 g/l

> <JCHEM_TRADITIONAL_IUPAC>
armes

> <JCHEM_VEBER_RULE>
0

$$$$
12560
  Mrv0541 02231214302D          

 51 53  0  0  1  0            999 V2000
    4.5376   -0.9760    0.0000 O   0  0  0  0  0  0  0  0  0  0  0  0
    4.5376    0.4529    0.0000 O   0  0  0  0  0  0  0  0  0  0  0  0
    5.9887   -2.4873    0.0000 O   0  0  0  0  0  0  0  0  0  0  0  0
    4.5376   -2.4050    0.0000 O   0  0  0  0  0  0  0  0  0  0  0  0
    3.3001    1.1675    0.0000 O   0  0  0  0  0  0  0  0  0  0  0  0
    7.0127    1.8819    0.0000 O   0  0  0  0  0  0  0  0  0  0  0  0
    4.1251    3.4214    0.0000 O   0  0  0  0  0  0  0  0  0  0  0  0
    2.8876   -0.9760    0.0000 O   0  0  0  0  0  0  0  0  0  0  0  0
    2.8876    3.3109    0.0000 O   0  0  0  0  0  0  0  0  0  0  0  0
    9.0471    1.3810    0.0000 O   0  0  0  0  0  0  0  0  0  0  0  0
    7.2057    0.9833    0.0000 O   0  0  0  0  0  0  0  0  0  0  0  0
    8.2502   -1.6905    0.0000 O   0  0  0  0  0  0  0  0  0  0  0  0
    7.0127    0.4529    0.0000 O   0  0  0  0  0  0  0  0  0  0  0  0
    2.0625   -2.4050    0.0000 N   0  0  0  0  0  0  0  0  0  0  0  0
    5.3626   -0.9760    0.0000 C   0  0  2  0  0  0  0  0  0  0  0  0
    5.7751   -0.2615    0.0000 C   0  0  2  0  0  0  0  0  0  0  0  0
    5.7751   -1.6905    0.0000 C   0  0  1  0  0  0  0  0  0  0  0  0
    5.3626    0.4529    0.0000 C   0  0  1  0  0  0  0  0  0  0  0  0
    6.6001   -1.6905    0.0000 C   0  0  0  0  0  0  0  0  0  0  0  0
    5.7751    1.1675    0.0000 C   0  0  2  0  0  0  0  0  0  0  0  0
    7.0127   -0.9760    0.0000 C   0  0  2  0  0  0  0  0  0  0  0  0
    4.1251   -1.6905    0.0000 C   0  0  2  0  0  0  0  0  0  0  0  0
    4.1251    1.1675    0.0000 C   0  0  2  0  0  0  0  0  0  0  0  0
    4.1251    2.5964    0.0000 C   0  0  2  0  0  0  0  0  0  0  0  0
    6.6001   -0.2615    0.0000 C   0  0  0  0  0  0  0  0  0  0  0  0
    3.3001   -1.6905    0.0000 C   0  0  1  0  0  0  0  0  0  0  0  0
    2.8876   -2.4050    0.0000 C   0  0  2  0  0  0  0  0  0  0  0  0
    4.5376    1.8819    0.0000 C   0  0  0  0  0  0  0  0  0  0  0  0
    5.1918   -2.2739    0.0000 C   0  0  0  0  0  0  0  0  0  0  0  0
    3.3001    2.5964    0.0000 C   0  0  2  0  0  0  0  0  0  0  0  0
    8.2502   -0.2615    0.0000 C   0  0  2  0  0  0  0  0  0  0  0  0
    8.2502    1.1675    0.0000 C   0  0  1  0  0  0  0  0  0  0  0  0
    3.3001   -3.1195    0.0000 C   0  0  0  0  0  0  0  0  0  0  0  0
    7.8377    0.4529    0.0000 C   0  0  2  0  0  0  0  0  0  0  0  0
    2.8876    1.8819    0.0000 C   0  0  2  0  0  0  0  0  0  0  0  0
    7.8377   -0.9760    0.0000 C   0  0  0  0  0  0  0  0  0  0  0  0
    4.1251   -3.1195    0.0000 C   0  0  1  0  0  0  0  0  0  0  0  0
    7.8377    1.8819    0.0000 C   0  0  1  0  0  0  0  0  0  0  0  0
    6.6001    1.1675    0.0000 C   0  0  0  0  0  0  0  0  0  0  0  0
    5.3626    1.8819    0.0000 C   0  0  0  0  0  0  0  0  0  0  0  0
    6.1876   -0.9760    0.0000 C   0  0  0  0  0  0  0  0  0  0  0  0
    4.8396    3.0089    0.0000 C   0  0  0  0  0  0  0  0  0  0  0  0
    9.0752   -0.2615    0.0000 C   0  0  0  0  0  0  0  0  0  0  0  0
    8.9260    0.6943    0.0000 C   0  0  0  0  0  0  0  0  0  0  0  0
    8.2502    2.5964    0.0000 C   0  0  0  0  0  0  0  0  0  0  0  0
    2.0625    1.8819    0.0000 C   0  0  0  0  0  0  0  0  0  0  0  0
    4.5376   -3.8339    0.0000 C   0  0  0  0  0  0  0  0  0  0  0  0
    1.6500   -3.1195    0.0000 C   0  0  0  0  0  0  0  0  0  0  0  0
    1.6500   -1.6905    0.0000 C   0  0  0  0  0  0  0  0  0  0  0  0
    7.8377    3.3109    0.0000 C   0  0  0  0  0  0  0  0  0  0  0  0
    4.8396    3.8339    0.0000 C   0  0  0  0  0  0  0  0  0  0  0  0
 15  1  1  6  0  0  0
 22  1  1  6  0  0  0
 18  2  1  6  0  0  0
 23  2  1  6  0  0  0
 17  3  1  1  0  0  0
  4 22  1  0  0  0  0
  4 37  1  0  0  0  0
  5 23  1  0  0  0  0
  5 35  1  0  0  0  0
  6 38  1  0  0  0  0
  6 39  1  0  0  0  0
 24  7  1  6  0  0  0
  7 51  1  0  0  0  0
 26  8  1  1  0  0  0
 30  9  1  6  0  0  0
 32 10  1  1  0  0  0
 34 11  1  1  0  0  0
 12 36  2  0  0  0  0
 13 39  2  0  0  0  0
 27 14  1  6  0  0  0
 14 48  1  0  0  0  0
 14 49  1  0  0  0  0
 15 16  1  0  0  0  0
 15 17  1  0  0  0  0
 16 18  1  0  0  0  0
 16 25  1  6  0  0  0
 17 19  1  0  0  0  0
 17 29  1  0  0  0  0
 18 20  1  0  0  0  0
 19 21  1  0  0  0  0
 20 39  1  0  0  0  0
 20 40  1  1  0  0  0
 21 36  1  0  0  0  0
 21 41  1  1  0  0  0
 22 26  1  0  0  0  0
 23 28  1  0  0  0  0
 24 28  1  0  0  0  0
 24 30  1  0  0  0  0
 24 42  1  0  0  0  0
 26 27  1  0  0  0  0
 27 33  1  0  0  0  0
 30 35  1  0  0  0  0
 31 34  1  0  0  0  0
 31 36  1  0  0  0  0
 31 43  1  1  0  0  0
 32 34  1  0  0  0  0
 32 38  1  0  0  0  0
 32 44  1  0  0  0  0
 33 37  1  0  0  0  0
 35 46  1  1  0  0  0
 37 47  1  6  0  0  0
 38 45  1  6  0  0  0
 45 50  1  0  0  0  0
M  END
> <DATABASE_ID>
DB00199

> <DATABASE_NAME>
drugbank

> <SMILES>
CC[C@H]1OC(=O)[C@H](C)[C@@H](O[C@H]2C[C@@](C)(OC)[C@@H](O)[C@H](C)O2)[C@H](C)[C@@H](O[C@@H]2O[C@H](C)C[C@@H]([C@H]2O)N(C)C)[C@](C)(O)C[C@@H](C)C(=O)[C@H](C)[C@@H](O)[C@]1(C)O

> <INCHI_IDENTIFIER>
InChI=1S/C37H67NO13/c1-14-25-37(10,45)30(41)20(4)27(39)18(2)16-35(8,44)32(51-34-28(40)24(38(11)12)15-19(3)47-34)21(5)29(22(6)33(43)49-25)50-26-17-36(9,46-13)31(42)23(7)48-26/h18-26,28-32,34,40-42,44-45H,14-17H2,1-13H3/t18-,19-,20+,21+,22-,23+,24+,25-,26+,28-,29+,30-,31+,32-,34+,35-,36-,37-/m1/s1

> <INCHI_KEY>
ULGZDMOVFRHVEP-RWJQBGPGSA-N

> <FORMULA>
C37H67NO13

> <MOLECULAR_WEIGHT>
733.9268

> <EXACT_MASS>
733.461241235

> <JCHEM_ACCEPTOR_COUNT>
13

> <JCHEM_AVERAGE_POLARIZABILITY>
78.21474107799995

> <JCHEM_BIOAVAILABILITY>
0

> <JCHEM_DONOR_COUNT>
5

> <JCHEM_FORMAL_CHARGE>
0

> <JCHEM_GHOSE_FILTER>
0

> <JCHEM_IUPAC>
(3R,4S,5S,6R,7R,9R,11R,12R,13S,14R)-6-{[(2S,3R,4S,6R)-4-(dimethylamino)-3-hydroxy-6-methyloxan-2-yl]oxy}-14-ethyl-7,12,13-trihydroxy-4-{[(2R,4R,5S,6S)-5-hydroxy-4-methoxy-4,6-dimethyloxan-2-yl]oxy}-3,5,7,9,11,13-hexamethyl-1-oxacyclotetradecane-2,10-dione

> <ALOGPS_LOGP>
2.37

> <JCHEM_LOGP>
2.596388847333333

> <ALOGPS_LOGS>
-3.20

> <JCHEM_MDDR_LIKE_RULE>
1

> <JCHEM_NUMBER_OF_RINGS>
3

> <JCHEM_PHYSIOLOGICAL_CHARGE>
1

> <JCHEM_PKA>
12.90862050588721

> <JCHEM_PKA_STRONGEST_ACIDIC>
12.438841177083088

> <JCHEM_PKA_STRONGEST_BASIC>
8.380974796874835

> <JCHEM_POLAR_SURFACE_AREA>
193.91

> <JCHEM_REFRACTIVITY>
186.03709999999998

> <JCHEM_ROTATABLE_BOND_COUNT>
7

> <JCHEM_RULE_OF_FIVE>
0

> <ALOGPS_SOLUBILITY>
4.59e-01 g/l

> <JCHEM_TRADITIONAL_IUPAC>
erythromycin

> <JCHEM_VEBER_RULE>
0

> <DRUGBANK_ID>
DB00199

> <SECONDARY_ACCESSION_NUMBERS>
APRD00953

> <DRUG_GROUPS>
approved; investigational; vet_approved

> <GENERIC_NAME>
Erythromycin

> <SYNONYMS>
3''-O-demethylerythromycin; Abomacetin; Eritromicina; Erythromycin; Erythromycin A; Erythromycin C; érythromycine; Erythromycinum

> <PRODUCTS>
Akne-mycin; Aktipak; Alti-erythromycin Tab 250mg USP; Benzamycin; Benzamycin Pak; E.E.S.; E.E.s; E.E.s 400; ERYTHROMYCIN Base Filmtab; Ees 600 Tablets 600mg; Ees-200; Ees-200 Chewable Tbs (eryped); Ees-400; Emycin Ect 250mg; Ery; Ery-Ped; Ery-Tab; Ery-tab; EryPed; EryPed 200; EryPed 400; EryPed Drops; Erybid; Eryc; Eryc Delayed-release Capsules; Erygel; Erymycin Ophthalmic Ointment 5mg/g; Erysol; Erythra-Derm; Erythro-500 Tab 500mg USP; Erythro-EC; Erythro-ES; Erythro-ES Tab 600mg USP; Erythro-S; Erythro-base; Erythro-base Tab 250mg USP; Erythrocin Filmtab 250mg; Erythrocin Filmtab 500mg; Erythrocin I.V.; Erythrocin IV; Erythrocin Lactobionate; Erythrocin Liq 250; Erythrocin Liquid 125; Erythrocin Stearate; Erythromid Tab 250mg; Erythromycin; Erythromycin Base; Erythromycin Base Base; Erythromycin Base Filmtab; Erythromycin Capsules USP 250mg; Erythromycin Ethylsuccinate; Erythromycin Ethylsuccinate and Sulfisoxazole Acetyl; Erythromycin Gel; Erythromycin Ophthalmic Ointment U.S.P.; Erythromycin Stearate Tablets USP 250mg; Erythromycin and Benzoyl Peroxide; Erythromycin-Benzoyl Peroxide; Erythromycine 250 Tab; Euro-erythromycin Ophthalmic Ointment USP; Ilosone 250mg Pulvule 375; Ilosone Liquid 125mg/5ml; Ilosone Liquid 250mg/5ml; Ilotycin; Ilotycin Cryst Op Ont 0.5% 52; Ilotycin Gluceptate IV Ampoule 646 1gm; Maxitril; Mytrophene; Novo-rythro Encap 250mg; Novo-rythro Estolate Cap 250mg; Novo-rythro Estolate Suspension; Novo-rythro Ethylsuccinate Pwr 400mg/5ml; Novo-rythro Ethylsuccinate Pws; Novo-rythro Stearate Tab 250mg; Nu-erythromycin-S 250mg Tablets; Odan-erythromycin; Onguent Ophtalmique D'erythromycine USP; PMS-erythromycin; Pce; Pdp-erythromycin; Pediazole; Sans-acne Solution; Staticin; Sterile Erythromycin Lactobionate Pws 1000mg; Sterile Erythromycin Lactobionate Pws 500mg; Stievamycin Forte; Stievamycin Mild; Stievamycin Regular; T-Stat; T-stat Lot; T-stat Pad-lot

> <INTERNATIONAL_BRANDS>
Ilosone

> <SALTS>
Erythromycin estolate; Erythromycin ethylsuccinate; Erythromycin gluceptate; Erythromycin lactobionate; Erythromycin phosphate; Erythromycin stearate; Erythromycin sulfate; Erythromycin thiocyanate

$$$$

  Mrv0541 04191212112D          

 52 54  0  0  0  0            999 V2000
   -3.2657    2.7280    0.0000 N   0  0  0  0  0  0  0  0  0  0  0  0
   -1.7679    2.7107    0.0000 C   0  0  0  0  0  0  0  0  0  0  0  0
   -3.6782    2.0135    0.0000 C   0  0  1  0  0  0  0  0  0  0  0  0
   -1.3554    1.9962    0.0000 C   0  0  1  0  0  0  0  0  0  0  0  0
   -1.7679    1.2818    0.0000 C   0  0  0  0  0  0  0  0  0  0  0  0
   -1.1845    0.6984    0.0000 C   0  0  2  0  0  0  0  0  0  0  0  0
   -1.1845   -0.1266    0.0000 C   0  0  1  0  0  0  0  0  0  0  0  0
   -1.7679   -0.7100    0.0000 C   0  0  2  0  0  0  0  0  0  0  0  0
   -1.7679   -1.5350    0.0000 C   0  0  1  0  0  0  0  0  0  0  0  0
   -2.4823   -1.9475    0.0000 C   0  0  2  0  0  0  0  0  0  0  0  0
   -3.1968   -1.5350    0.0000 C   0  0  0  0  0  0  0  0  0  0  0  0
   -3.1968   -0.7100    0.0000 O   0  0  0  0  0  0  0  0  0  0  0  0
   -3.9113   -0.2975    0.0000 C   0  0  1  0  0  0  0  0  0  0  0  0
   -3.9113    0.5275    0.0000 C   0  0  2  0  0  0  0  0  0  0  0  0
   -3.3279    1.1109    0.0000 C   0  0  2  0  0  0  0  0  0  0  0  0
   -3.2657    3.5530    0.0000 C   0  0  0  0  0  0  0  0  0  0  0  0
   -4.4751    2.2270    0.0000 C   0  0  0  0  0  0  0  0  0  0  0  0
   -2.5310    0.8974    0.0000 O   0  0  0  0  0  0  0  0  0  0  0  0
   -4.6258    0.9400    0.0000 O   0  0  0  0  0  0  0  0  0  0  0  0
   -2.4823   -2.7725    0.0000 C   0  0  0  0  0  0  0  0  0  0  0  0
   -0.3876    0.9119    0.0000 O   0  0  0  0  0  0  0  0  0  0  0  0
   -0.5585    2.2097    0.0000 C   0  0  0  0  0  0  0  0  0  0  0  0
   -0.4700    0.2859    0.0000 C   0  0  0  0  0  0  0  0  0  0  0  0
   -4.6258    0.1150    0.0000 C   0  0  0  0  0  0  0  0  0  0  0  0
   -4.6258   -0.7100    0.0000 C   0  0  0  0  0  0  0  0  0  0  0  0
   -0.6394   -3.2068    0.0000 O   0  0  0  0  0  0  0  0  0  0  0  0
    0.5612   -0.6851    0.0000 O   0  0  0  0  0  0  0  0  0  0  0  0
   -3.9113   -1.9475    0.0000 O   0  0  0  0  0  0  0  0  0  0  0  0
   -5.4508   -0.7100    0.0000 C   0  0  0  0  0  0  0  0  0  0  0  0
   -0.6394   -4.0318    0.0000 C   0  0  1  0  0  0  0  0  0  0  0  0
    1.7987   -1.3996    0.0000 C   0  0  1  0  0  0  0  0  0  0  0  0
    0.9737   -1.3996    0.0000 C   0  0  1  0  0  0  0  0  0  0  0  0
    0.5612   -2.1141    0.0000 O   0  0  0  0  0  0  0  0  0  0  0  0
    0.9736   -2.8286    0.0000 C   0  0  1  0  0  0  0  0  0  0  0  0
    1.7986   -2.8286    0.0000 C   0  0  0  0  0  0  0  0  0  0  0  0
    2.2112   -2.1141    0.0000 C   0  0  2  0  0  0  0  0  0  0  0  0
    0.1856   -4.0318    0.0000 C   0  0  0  0  0  0  0  0  0  0  0  0
   -1.0519   -4.7463    0.0000 O   0  0  0  0  0  0  0  0  0  0  0  0
   -0.6395   -5.4608    0.0000 C   0  0  2  0  0  0  0  0  0  0  0  0
    0.1855   -5.4608    0.0000 C   0  0  1  0  0  0  0  0  0  0  0  0
    0.5981   -4.7463    0.0000 C   0  0  1  0  0  0  0  0  0  0  0  0
    2.3820   -0.8162    0.0000 O   0  0  0  0  0  0  0  0  0  0  0  0
   -1.2228   -6.0441    0.0000 C   0  0  0  0  0  0  0  0  0  0  0  0
    1.1814   -5.3296    0.0000 C   0  0  0  0  0  0  0  0  0  0  0  0
    0.5611   -3.5430    0.0000 C   0  0  0  0  0  0  0  0  0  0  0  0
    3.0362   -2.1141    0.0000 N   0  0  0  0  0  0  0  0  0  0  0  0
    1.1814   -4.1629    0.0000 O   0  0  0  0  0  0  0  0  0  0  0  0
    0.5980   -6.1752    0.0000 O   0  0  0  0  0  0  0  0  0  0  0  0
    2.0064   -4.1629    0.0000 C   0  0  0  0  0  0  0  0  0  0  0  0
    3.6195   -1.5307    0.0000 C   0  0  0  0  0  0  0  0  0  0  0  0
    3.4487   -2.8286    0.0000 C   0  0  0  0  0  0  0  0  0  0  0  0
   -2.4824   -0.2975    0.0000 C   0  0  0  0  0  0  0  0  0  0  0  0
  1  2  1  0  0  0  0
  1  3  1  0  0  0  0
  2  4  1  0  0  0  0
  4  5  1  0  0  0  0
  5  6  1  0  0  0  0
  6  7  1  0  0  0  0
  7  8  1  0  0  0  0
  8  9  1  0  0  0  0
  9 10  1  0  0  0  0
 10 11  1  0  0  0  0
 11 12  1  0  0  0  0
 12 13  1  0  0  0  0
 13 14  1  0  0  0  0
 14 15  1  0  0  0  0
 15  3  1  0  0  0  0
  1 16  1  0  0  0  0
  3 17  1  1  0  0  0
 15 18  1  1  0  0  0
 14 19  1  1  0  0  0
 10 20  1  1  0  0  0
  6 21  1  1  0  0  0
  4 22  1  6  0  0  0
  6 23  1  6  0  0  0
 14 24  1  6  0  0  0
 13 25  1  6  0  0  0
  9 26  1  6  0  0  0
  7 27  1  6  0  0  0
 11 28  2  0  0  0  0
 25 29  1  0  0  0  0
 32 27  1  1  0  0  0
 30 26  1  1  0  0  0
 31 32  1  0  0  0  0
 32 33  1  0  0  0  0
 33 34  1  0  0  0  0
 34 35  1  0  0  0  0
 35 36  1  0  0  0  0
 31 36  1  0  0  0  0
 37 30  1  0  0  0  0
 30 38  1  0  0  0  0
 38 39  1  0  0  0  0
 39 40  1  0  0  0  0
 40 41  1  0  0  0  0
 37 41  1  0  0  0  0
 31 42  1  6  0  0  0
 39 43  1  6  0  0  0
 41 44  1  6  0  0  0
 34 45  1  1  0  0  0
 36 46  1  1  0  0  0
 41 47  1  1  0  0  0
 40 48  1  1  0  0  0
 47 49  1  0  0  0  0
 46 50  1  0  0  0  0
 46 51  1  0  0  0  0
  8 52  1  6  0  0  0
M  END
> <DATABASE_ID>
DB00207

> <DATABASE_NAME>
drugbank

> <SMILES>
CC[C@H]1OC(=O)[C@H](C)[C@@H](O[C@H]2C[C@@](C)(OC)[C@@H](O)[C@H](C)O2)[C@H](C)[C@@H](O[C@@H]2O[C@H](C)C[C@@H]([C@H]2O)N(C)C)[C@](C)(O)C[C@@H](C)CN(C)[C@H](C)[C@@H](O)[C@]1(C)O

> <INCHI_IDENTIFIER>
InChI=1S/C38H72N2O12/c1-15-27-38(10,46)31(42)24(6)40(13)19-20(2)17-36(8,45)33(52-35-29(41)26(39(11)12)16-21(3)48-35)22(4)30(23(5)34(44)50-27)51-28-18-37(9,47-14)32(43)25(7)49-28/h20-33,35,41-43,45-46H,15-19H2,1-14H3/t20-,21-,22+,23-,24-,25+,26+,27-,28+,29-,30+,31-,32+,33-,35+,36-,37-,38-/m1/s1

> <INCHI_KEY>
MQTOSJVFKKJCRP-BICOPXKESA-N

> <FORMULA>
C38H72N2O12

> <MOLECULAR_WEIGHT>
748.9845

> <EXACT_MASS>
748.508525778

> <JCHEM_ACCEPTOR_COUNT>
13

> <JCHEM_AVERAGE_POLARIZABILITY>
83.10923293200645

> <JCHEM_BIOAVAILABILITY>
0

> <JCHEM_DONOR_COUNT>
5

> <JCHEM_FORMAL_CHARGE>
0

> <JCHEM_GHOSE_FILTER>
0

> <JCHEM_IUPAC>
(2R,3S,4R,5R,8R,10R,11R,12S,13S,14R)-11-{[(2S,3R,4S,6R)-4-(dimethylamino)-3-hydroxy-6-methyloxan-2-yl]oxy}-2-ethyl-3,4,10-trihydroxy-13-{[(2R,4R,5S,6S)-5-hydroxy-4-methoxy-4,6-dimethyloxan-2-yl]oxy}-3,5,6,8,10,12,14-heptamethyl-1-oxa-6-azacyclopentadecan-15-one

> <ALOGPS_LOGP>
3.03

> <JCHEM_LOGP>
2.4447815993333313

> <ALOGPS_LOGS>
-3.16

> <JCHEM_MDDR_LIKE_RULE>
1

> <JCHEM_NUMBER_OF_RINGS>
3

> <JCHEM_PHYSIOLOGICAL_CHARGE>
2

> <JCHEM_PKA>
12.89815406880848

> <JCHEM_PKA_STRONGEST_ACIDIC>
12.428323628576404

> <JCHEM_PKA_STRONGEST_BASIC>
9.569664875084948

> <JCHEM_POLAR_SURFACE_AREA>
180.08

> <JCHEM_REFRACTIVITY>
194.1082

> <JCHEM_ROTATABLE_BOND_COUNT>
7

> <JCHEM_RULE_OF_FIVE>
0

> <ALOGPS_SOLUBILITY>
5.14e-01 g/l

> <JCHEM_TRADITIONAL_IUPAC>
azithromycin

> <JCHEM_VEBER_RULE>
0

> <DRUGBANK_ID>
DB00207

> <SECONDARY_ACCESSION_NUMBERS>
APRD00397

> <DRUG_GROUPS>
approved

> <GENERIC_NAME>
Azithromycin

> <SYNONYMS>
Azithromycin; Azithromycine; Azithromycinum; Azitromicina

> <PRODUCTS>
Act Azithromycin; Ag-azithromycin; Apo-azithromycin; Apo-azithromycin Z; Auro-azithromycin; Ava-azithromycin; AzaSITE; AzaSite; Azithromycin; Azithromycin Dihydrate; Azithromycin Monohydrate; Azithromycin dihydrate; Azithromycin for Injection; Azithromycin for Injection USP; Azithromycin for Injection, USP; Azithromycin monohydrate; Dom-azithromycin; Gd-azithromycin; Ipg-azithromycin; Jamp-azithromycin; Mar-azithromycin; Mylan-azithromycin; Mylan-azithromycin for Injection; Novo-azithromycin Pediatric; Nra-azithromycin; PHL-azithromycin; PMS-azithromycin; Pro-azithromycine; Ratio Azithromycin; Riva Azithromycin; Riva-azithromycin; Sandoz Azithromycin; Teva-azithromycin; Zithromax; Zithromax - Pws Orl 100mg/5ml; Zithromax 600mg; Zithromax Cap 250mg; Zithromax for Intravenous Injection; Zmax; Zmax SR

> <INTERNATIONAL_BRANDS>
Azenil; Azibiot; Azifast; Azigram; Azimakrol; Azin; Azithrocin; Azitromax; Azitromin; Aztrin; Hemomycin; Misultina; Penalox; Sumamed; Vinzam; Zifin; Zitrocin; Zitrotek

> <SALTS>
Azithromycin dihydrate; Azithromycin monohydrate

$$$$
152946
  -OEChem-10051719103D

 53 57  0     1  0  0  0  0  0999 V2000
   -1.4919    2.8370   -0.0982 F   0  0  0  0  0  0  0  0  0  0  0  0
   -0.4618   -1.7666   -0.3616 O   0  0  0  0  0  0  0  0  0  0  0  0
    3.5304    2.7033    0.2066 O   0  0  0  0  0  0  0  0  0  0  0  0
    5.8572    1.7382    0.9252 O   0  0  0  0  0  0  0  0  0  0  0  0
    6.4486   -0.0925   -0.3112 O   0  0  0  0  0  0  0  0  0  0  0  0
   -2.3018    0.2264   -0.3360 N   0  0  3  0  0  0  0  0  0  0  0  0
   -5.4691   -1.3038    0.7445 N   0  0  0  0  0  0  0  0  0  0  0  0
    2.3781   -1.1918   -0.1415 N   0  0  0  0  0  0  0  0  0  0  0  0
   -4.5880    0.3686   -0.9370 C   0  0  2  0  0  0  0  0  0  0  0  0
   -4.3552   -0.9016   -0.1101 C   0  0  1  0  0  0  0  0  0  0  0  0
   -3.1685    0.7134   -1.4124 C   0  0  0  0  0  0  0  0  0  0  0  0
   -3.0288   -0.6205    0.6124 C   0  0  0  0  0  0  0  0  0  0  0  0
   -5.2013    1.5031   -0.1061 C   0  0  0  0  0  0  0  0  0  0  0  0
    2.0949   -2.6411   -0.2625 C   0  0  0  0  0  0  0  0  0  0  0  0
   -6.4000    0.9965    0.6865 C   0  0  0  0  0  0  0  0  0  0  0  0
    2.6185   -3.6064    0.7464 C   0  0  0  0  0  0  0  0  0  0  0  0
    1.1484   -3.3140    0.6734 C   0  0  0  0  0  0  0  0  0  0  0  0
   -6.0123   -0.2047    1.5447 C   0  0  0  0  0  0  0  0  0  0  0  0
   -0.9604    0.5275   -0.2295 C   0  0  0  0  0  0  0  0  0  0  0  0
    1.3688   -0.1870   -0.1335 C   0  0  0  0  0  0  0  0  0  0  0  0
    0.0010   -0.4869   -0.2413 C   0  0  0  0  0  0  0  0  0  0  0  0
    1.7394    1.1699   -0.0134 C   0  0  0  0  0  0  0  0  0  0  0  0
   -0.5743    1.8594   -0.1100 C   0  0  0  0  0  0  0  0  0  0  0  0
    3.7056   -0.8260   -0.0317 C   0  0  0  0  0  0  0  0  0  0  0  0
    0.7751    2.1854   -0.0017 C   0  0  0  0  0  0  0  0  0  0  0  0
    4.1633    0.4265    0.0865 C   0  0  0  0  0  0  0  0  0  0  0  0
    3.1757    1.5356    0.1029 C   0  0  0  0  0  0  0  0  0  0  0  0
    5.6086    0.6325    0.1919 C   0  0  0  0  0  0  0  0  0  0  0  0
   -0.6002   -2.2802   -1.6832 C   0  0  0  0  0  0  0  0  0  0  0  0
   -5.2454    0.1655   -1.7912 H   0  0  0  0  0  0  0  0  0  0  0  0
   -4.1776   -1.7279   -0.8128 H   0  0  0  0  0  0  0  0  0  0  0  0
   -2.9344    0.1713   -2.3358 H   0  0  0  0  0  0  0  0  0  0  0  0
   -3.0558    1.7851   -1.6040 H   0  0  0  0  0  0  0  0  0  0  0  0
   -3.1675   -0.0655    1.5464 H   0  0  0  0  0  0  0  0  0  0  0  0
   -2.5225   -1.5595    0.8533 H   0  0  0  0  0  0  0  0  0  0  0  0
   -5.5077    2.3230   -0.7660 H   0  0  0  0  0  0  0  0  0  0  0  0
   -4.4628    1.9225    0.5889 H   0  0  0  0  0  0  0  0  0  0  0  0
    2.1223   -2.9754   -1.2946 H   0  0  0  0  0  0  0  0  0  0  0  0
   -6.7859    1.7986    1.3256 H   0  0  0  0  0  0  0  0  0  0  0  0
   -7.2076    0.7177   -0.0019 H   0  0  0  0  0  0  0  0  0  0  0  0
   -5.1743   -2.0595    1.3620 H   0  0  0  0  0  0  0  0  0  0  0  0
    3.1551   -3.2347    1.6108 H   0  0  0  0  0  0  0  0  0  0  0  0
    2.9589   -4.5722    0.3931 H   0  0  0  0  0  0  0  0  0  0  0  0
    0.5255   -4.1241    0.3123 H   0  0  0  0  0  0  0  0  0  0  0  0
    0.7475   -2.7932    1.5362 H   0  0  0  0  0  0  0  0  0  0  0  0
   -5.2980    0.0974    2.3189 H   0  0  0  0  0  0  0  0  0  0  0  0
   -6.9036   -0.5675    2.0686 H   0  0  0  0  0  0  0  0  0  0  0  0
    4.3899   -1.6690   -0.0569 H   0  0  0  0  0  0  0  0  0  0  0  0
    1.0558    3.2308    0.0905 H   0  0  0  0  0  0  0  0  0  0  0  0
    0.2210   -1.9660   -2.3358 H   0  0  0  0  0  0  0  0  0  0  0  0
   -1.5472   -1.9408   -2.1130 H   0  0  0  0  0  0  0  0  0  0  0  0
   -0.6250   -3.3724   -1.6415 H   0  0  0  0  0  0  0  0  0  0  0  0
    6.8185    1.9102    1.0186 H   0  0  0  0  0  0  0  0  0  0  0  0
  1 23  1  0  0  0  0
  2 21  1  0  0  0  0
  2 29  1  0  0  0  0
  3 27  2  0  0  0  0
  4 28  1  0  0  0  0
  4 53  1  0  0  0  0
  5 28  2  0  0  0  0
  6 11  1  0  0  0  0
  6 12  1  0  0  0  0
  6 19  1  0  0  0  0
  7 10  1  0  0  0  0
  7 18  1  0  0  0  0
  7 41  1  0  0  0  0
  8 14  1  0  0  0  0
  8 20  1  0  0  0  0
  8 24  1  0  0  0  0
  9 10  1  0  0  0  0
  9 11  1  0  0  0  0
  9 13  1  0  0  0  0
  9 30  1  0  0  0  0
 10 12  1  0  0  0  0
 10 31  1  0  0  0  0
 11 32  1  0  0  0  0
 11 33  1  0  0  0  0
 12 34  1  0  0  0  0
 12 35  1  0  0  0  0
 13 15  1  0  0  0  0
 13 36  1  0  0  0  0
 13 37  1  0  0  0  0
 14 16  1  0  0  0  0
 14 17  1  0  0  0  0
 14 38  1  0  0  0  0
 15 18  1  0  0  0  0
 15 39  1  0  0  0  0
 15 40  1  0  0  0  0
 16 17  1  0  0  0  0
 16 42  1  0  0  0  0
 16 43  1  0  0  0  0
 17 44  1  0  0  0  0
 17 45  1  0  0  0  0
 18 46  1  0  0  0  0
 18 47  1  0  0  0  0
 19 21  1  0  0  0  0
 19 23  2  0  0  0  0
 20 21  2  0  0  0  0
 20 22  1  0  0  0  0
 22 25  2  0  0  0  0
 22 27  1  0  0  0  0
 23 25  1  0  0  0  0
 24 26  2  0  0  0  0
 24 48  1  0  0  0  0
 25 49  1  0  0  0  0
 26 27  1  0  0  0  0
 26 28  1  0  0  0  0
 29 50  1  0  0  0  0
 29 51  1  0  0  0  0
 29 52  1  0  0  0  0
M  END
> <DATABASE_ID>
DB00218

> <DATABASE_NAME>
drugbank

> <ORIGINAL_SOURCE>
PUBCHEM

> <ORIGINAL_SOURCE_URL>
https://pubchem.ncbi.nlm.nih.gov/rest/pug/compound/inchikey/FABPRXSRWADJSP-MEDUHNTESA-N/SDF?record_type=3d

> <SMILES>
[H][C@]12CN(C[C@@]1([H])NCCC2)C1=C(F)C=C2C(=O)C(=CN(C3CC3)C2=C1OC)C(O)=O

> <INCHI_IDENTIFIER>
InChI=1S/C21H24FN3O4/c1-29-20-17-13(19(26)14(21(27)28)9-25(17)12-4-5-12)7-15(22)18(20)24-8-11-3-2-6-23-16(11)10-24/h7,9,11-12,16,23H,2-6,8,10H2,1H3,(H,27,28)/t11-,16+/m0/s1

> <INCHI_KEY>
FABPRXSRWADJSP-MEDUHNTESA-N

> <FORMULA>
C21H24FN3O4

> <MOLECULAR_WEIGHT>
401.4314

> <EXACT_MASS>
401.175084476

> <JCHEM_ACCEPTOR_COUNT>
7

> <JCHEM_AVERAGE_POLARIZABILITY>
41.24465784304949

> <JCHEM_BIOAVAILABILITY>
1

> <JCHEM_DONOR_COUNT>
2

> <JCHEM_FORMAL_CHARGE>
0

> <JCHEM_GHOSE_FILTER>
0

> <JCHEM_IUPAC>
7-[(4aS,7aS)-octahydro-1H-pyrrolo[3,4-b]pyridin-6-yl]-1-cyclopropyl-6-fluoro-8-methoxy-4-oxo-1,4-dihydroquinoline-3-carboxylic acid

> <ALOGPS_LOGP>
0.01

> <JCHEM_LOGP>
-0.4989749388152805

> <ALOGPS_LOGS>
-3.38

> <JCHEM_MDDR_LIKE_RULE>
0

> <JCHEM_NUMBER_OF_RINGS>
5

> <JCHEM_PHYSIOLOGICAL_CHARGE>
0

> <JCHEM_PKA_STRONGEST_ACIDIC>
5.6861297847146455

> <JCHEM_PKA_STRONGEST_BASIC>
9.423932936543999

> <JCHEM_POLAR_SURFACE_AREA>
82.11

> <JCHEM_REFRACTIVITY>
106.22399999999999

> <JCHEM_ROTATABLE_BOND_COUNT>
4

> <JCHEM_RULE_OF_FIVE>
1

> <ALOGPS_SOLUBILITY>
1.68e-01 g/l

> <JCHEM_TRADITIONAL_IUPAC>
moxifloxacin

> <JCHEM_VEBER_RULE>
0

$$$$
5905
  -OEChem-10031812023D

 28 29  0     1  0  0  0  0  0999 V2000
   -2.6313   -3.0212    0.3530 I   0  0  0  0  0  0  0  0  0  0  0  0
    1.6065   -0.1760   -0.9977 O   0  0  0  0  0  0  0  0  0  0  0  0
    3.8614    1.5505    0.1454 O   0  0  0  0  0  0  0  0  0  0  0  0
    2.2565   -2.8769   -0.6283 O   0  0  0  0  0  0  0  0  0  0  0  0
   -1.0880    2.8798   -0.3553 O   0  0  0  0  0  0  0  0  0  0  0  0
   -4.3664   -0.2867    0.2110 O   0  0  0  0  0  0  0  0  0  0  0  0
   -0.4267    0.6477   -0.1840 N   0  0  0  0  0  0  0  0  0  0  0  0
   -2.7084    1.2819   -0.0733 N   0  0  0  0  0  0  0  0  0  0  0  0
    3.0541    0.5363    0.7395 C   0  0  1  0  0  0  0  0  0  0  0  0
    0.9748    0.9182   -0.3182 C   0  0  1  0  0  0  0  0  0  0  0  0
    1.6741    1.0841    1.0212 C   0  0  0  0  0  0  0  0  0  0  0  0
    2.7860   -0.5705   -0.2707 C   0  0  1  0  0  0  0  0  0  0  0  0
    2.5037   -1.9159    0.3853 C   0  0  0  0  0  0  0  0  0  0  0  0
   -1.3777    1.6897   -0.2152 C   0  0  0  0  0  0  0  0  0  0  0  0
   -0.8344   -0.6708   -0.0206 C   0  0  0  0  0  0  0  0  0  0  0  0
   -2.1095   -1.0550    0.1154 C   0  0  0  0  0  0  0  0  0  0  0  0
   -3.1746   -0.0153    0.0923 C   0  0  0  0  0  0  0  0  0  0  0  0
    3.5729    0.1852    1.6364 H   0  0  0  0  0  0  0  0  0  0  0  0
    1.1230    1.8131   -0.9343 H   0  0  0  0  0  0  0  0  0  0  0  0
    1.1888    0.4800    1.7974 H   0  0  0  0  0  0  0  0  0  0  0  0
    1.6649    2.1273    1.3524 H   0  0  0  0  0  0  0  0  0  0  0  0
    3.5944   -0.6701   -1.0035 H   0  0  0  0  0  0  0  0  0  0  0  0
    1.6514   -1.8910    1.0680 H   0  0  0  0  0  0  0  0  0  0  0  0
    3.3804   -2.2442    0.9538 H   0  0  0  0  0  0  0  0  0  0  0  0
    3.9605    2.2634    0.7993 H   0  0  0  0  0  0  0  0  0  0  0  0
   -0.0661   -1.4265   -0.0124 H   0  0  0  0  0  0  0  0  0  0  0  0
   -3.4101    2.0168   -0.0931 H   0  0  0  0  0  0  0  0  0  0  0  0
    2.0955   -3.7266   -0.1839 H   0  0  0  0  0  0  0  0  0  0  0  0
  1 16  1  0  0  0  0
  2 10  1  0  0  0  0
  2 12  1  0  0  0  0
  3  9  1  0  0  0  0
  3 25  1  0  0  0  0
  4 13  1  0  0  0  0
  4 28  1  0  0  0  0
  5 14  2  0  0  0  0
  6 17  2  0  0  0  0
  7 10  1  0  0  0  0
  7 14  1  0  0  0  0
  7 15  1  0  0  0  0
  8 14  1  0  0  0  0
  8 17  1  0  0  0  0
  8 27  1  0  0  0  0
  9 11  1  0  0  0  0
  9 12  1  0  0  0  0
  9 18  1  0  0  0  0
 10 11  1  0  0  0  0
 10 19  1  0  0  0  0
 11 20  1  0  0  0  0
 11 21  1  0  0  0  0
 12 13  1  0  0  0  0
 12 22  1  0  0  0  0
 13 23  1  0  0  0  0
 13 24  1  0  0  0  0
 15 16  2  0  0  0  0
 15 26  1  0  0  0  0
 16 17  1  0  0  0  0
M  END
> <DATABASE_ID>
DB00249

> <DATABASE_NAME>
drugbank

> <ORIGINAL_SOURCE>
PUBCHEM

> <ORIGINAL_SOURCE_URL>
https://pubchem.ncbi.nlm.nih.gov/rest/pug/compound/inchikey/XQFRJNBWHJMXHO-RRKCRQDMSA-N/SDF?record_type=3d

> <SMILES>
OC[C@H]1O[C@H](C[C@@H]1O)N1C=C(I)C(=O)NC1=O

> <INCHI_IDENTIFIER>
InChI=1S/C9H11IN2O5/c10-4-2-12(9(16)11-8(4)15)7-1-5(14)6(3-13)17-7/h2,5-7,13-14H,1,3H2,(H,11,15,16)/t5-,6+,7+/m0/s1

> <INCHI_KEY>
XQFRJNBWHJMXHO-RRKCRQDMSA-N

> <FORMULA>
C9H11IN2O5

> <MOLECULAR_WEIGHT>
354.0985

> <EXACT_MASS>
353.971264892

> <JCHEM_ACCEPTOR_COUNT>
5

> <JCHEM_ATOM_COUNT>
28

> <JCHEM_AVERAGE_POLARIZABILITY>
26.170744978009015

> <JCHEM_BIOAVAILABILITY>
1

> <JCHEM_DONOR_COUNT>
3

> <JCHEM_FORMAL_CHARGE>
0

> <JCHEM_GHOSE_FILTER>
0

> <JCHEM_IUPAC>
1-[(2R,4S,5R)-4-hydroxy-5-(hydroxymethyl)oxolan-2-yl]-5-iodo-1,2,3,4-tetrahydropyrimidine-2,4-dione

> <ALOGPS_LOGP>
-0.70

> <JCHEM_LOGP>
-0.5289186266666662

> <ALOGPS_LOGS>
-1.18

> <JCHEM_MDDR_LIKE_RULE>
0

> <JCHEM_NUMBER_OF_RINGS>
2

> <JCHEM_PHYSIOLOGICAL_CHARGE>
0

> <JCHEM_PKA>
13.907879720516654

> <JCHEM_PKA_STRONGEST_ACIDIC>
8.456081807252897

> <JCHEM_PKA_STRONGEST_BASIC>
-2.978083591952415

> <JCHEM_POLAR_SURFACE_AREA>
99.09999999999998

> <JCHEM_REFRACTIVITY>
64.40390000000001

> <JCHEM_ROTATABLE_BOND_COUNT>
2

> <JCHEM_RULE_OF_FIVE>
1

> <ALOGPS_SOLUBILITY>
2.34e+01 g/l

> <JCHEM_TRADITIONAL_IUPAC>
idoxuridine

> <JCHEM_VEBER_RULE>
0

$$$$

  Mrv1909 11171900322D          

 34 37  0  0  0  0            999 V2000
    0.7144    0.6187    0.0000 C   0  0  2  0  0  0  0  0  0  0  0  0
   -0.7144    0.6187    0.0000 C   0  0  0  0  0  0  0  0  0  0  0  0
    0.7144   -0.2062    0.0000 C   0  0  2  0  0  0  0  0  0  0  0  0
    2.1433    0.6187    0.0000 C   0  0  0  0  0  0  0  0  0  0  0  0
    0.0000    1.0312    0.0000 C   0  0  0  0  0  0  0  0  0  0  0  0
    1.4289    1.0312    0.0000 C   0  0  0  0  0  0  0  0  0  0  0  0
    2.1433   -0.2062    0.0000 C   0  0  0  0  0  0  0  0  0  0  0  0
   -1.4289    1.0312    0.0000 C   0  0  0  0  0  0  0  0  0  0  0  0
   -0.7144   -0.2062    0.0000 C   0  0  2  0  0  0  0  0  0  0  0  0
    1.4289   -0.6187    0.0000 C   0  0  1  0  0  0  0  0  0  0  0  0
   -2.1434    0.6187    0.0000 C   0  0  0  0  0  0  0  0  0  0  0  0
    0.0000   -0.6187    0.0000 C   0  0  2  0  0  0  0  0  0  0  0  0
   -2.1434   -0.2062    0.0000 C   0  0  0  0  0  0  0  0  0  0  0  0
   -1.4289   -0.6187    0.0000 C   0  0  2  0  0  0  0  0  0  0  0  0
    2.8578    1.0312    0.0000 C   0  0  0  0  0  0  0  0  0  0  0  0
    1.4289   -1.4437    0.0000 N   0  0  0  0  0  0  0  0  0  0  0  0
    1.4289    1.8562    0.0000 O   0  0  0  0  0  0  0  0  0  0  0  0
   -1.4289    1.8562    0.0000 O   0  0  0  0  0  0  0  0  0  0  0  0
   -2.8578    1.0312    0.0000 C   0  0  0  0  0  0  0  0  0  0  0  0
    0.7144    1.4437    0.0000 O   0  0  0  0  0  0  0  0  0  0  0  0
    3.5723    0.6187    0.0000 N   0  0  0  0  0  0  0  0  0  0  0  0
    0.0000    1.8562    0.0000 O   0  0  0  0  0  0  0  0  0  0  0  0
    2.8578   -0.6187    0.0000 O   0  0  0  0  0  0  0  0  0  0  0  0
    0.0000   -1.4437    0.0000 O   0  0  0  0  0  0  0  0  0  0  0  0
    2.8578    1.8562    0.0000 O   0  0  0  0  0  0  0  0  0  0  0  0
   -2.8578   -0.6187    0.0000 C   0  0  0  0  0  0  0  0  0  0  0  0
   -1.4289   -1.4437    0.0000 C   0  0  0  0  0  0  0  0  0  0  0  0
   -2.8578    1.8562    0.0000 O   0  0  0  0  0  0  0  0  0  0  0  0
   -3.5723   -0.2062    0.0000 C   0  0  0  0  0  0  0  0  0  0  0  0
   -3.5723    0.6187    0.0000 C   0  0  0  0  0  0  0  0  0  0  0  0
    2.1433   -1.8562    0.0000 C   0  0  0  0  0  0  0  0  0  0  0  0
    0.7144   -1.8562    0.0000 C   0  0  0  0  0  0  0  0  0  0  0  0
   -0.7144   -1.0312    0.0000 H   0  0  0  0  0  0  0  0  0  0  0  0
    0.7144   -1.0312    0.0000 H   0  0  0  0  0  0  0  0  0  0  0  0
  3  1  1  0  0  0  0
  5  1  1  0  0  0  0
  6  1  1  0  0  0  0
  1 20  1  1  0  0  0
  5  2  2  0  0  0  0
  8  2  1  0  0  0  0
  9  2  1  0  0  0  0
 10  3  1  0  0  0  0
 12  3  1  0  0  0  0
  3 34  1  1  0  0  0
  6  4  1  0  0  0  0
  7  4  2  0  0  0  0
 15  4  1  0  0  0  0
 22  5  1  0  0  0  0
 17  6  2  0  0  0  0
 23  7  1  0  0  0  0
 10  7  1  0  0  0  0
 11  8  1  0  0  0  0
 18  8  2  0  0  0  0
 14  9  1  0  0  0  0
  9 33  1  1  0  0  0
 12  9  1  0  0  0  0
 10 16  1  1  0  0  0
 19 11  2  0  0  0  0
 13 11  1  0  0  0  0
 12 24  1  1  0  0  0
 14 13  1  0  0  0  0
 26 13  2  0  0  0  0
 14 27  1  1  0  0  0
 21 15  1  0  0  0  0
 25 15  2  0  0  0  0
 31 16  1  0  0  0  0
 32 16  1  0  0  0  0
 28 19  1  0  0  0  0
 30 19  1  0  0  0  0
 29 26  1  0  0  0  0
 30 29  2  0  0  0  0
M  END
> <DATABASE_ID>
DB00254

> <DATABASE_NAME>
drugbank

> <SMILES>
[H][C@@]12[C@@H](C)C3=CC=CC(O)=C3C(=O)C1=C(O)[C@]1(O)C(=O)C(C(N)=O)=C(O)[C@@H](N(C)C)[C@]1([H])[C@H]2O

> <INCHI_IDENTIFIER>
InChI=1S/C22H24N2O8/c1-7-8-5-4-6-9(25)11(8)16(26)12-10(7)17(27)14-15(24(2)3)18(28)13(21(23)31)20(30)22(14,32)19(12)29/h4-7,10,14-15,17,25,27-29,32H,1-3H3,(H2,23,31)/t7-,10+,14+,15-,17-,22-/m0/s1

> <INCHI_KEY>
JBIWCJUYHHGXTC-AKNGSSGZSA-N

> <FORMULA>
C22H24N2O8

> <MOLECULAR_WEIGHT>
444.4346

> <EXACT_MASS>
444.153265754

> <JCHEM_ACCEPTOR_COUNT>
9

> <JCHEM_ATOM_COUNT>
56

> <JCHEM_AVERAGE_POLARIZABILITY>
43.646934948494284

> <JCHEM_BIOAVAILABILITY>
1

> <JCHEM_DONOR_COUNT>
6

> <JCHEM_FORMAL_CHARGE>
0

> <JCHEM_GHOSE_FILTER>
0

> <JCHEM_IUPAC>
(4S,4aR,5S,5aR,6R,12aS)-4-(dimethylamino)-3,5,10,12,12a-pentahydroxy-6-methyl-1,11-dioxo-1,4,4a,5,5a,6,11,12a-octahydrotetracene-2-carboxamide

> <ALOGPS_LOGP>
-0.72

> <JCHEM_LOGP>
-3.337123924710148

> <ALOGPS_LOGS>
-2.85

> <JCHEM_MDDR_LIKE_RULE>
0

> <JCHEM_NUMBER_OF_RINGS>
4

> <JCHEM_PHYSIOLOGICAL_CHARGE>
0

> <JCHEM_PKA>
7.398375585243604

> <JCHEM_PKA_STRONGEST_ACIDIC>
3.2650498499118945

> <JCHEM_PKA_STRONGEST_BASIC>
8.330412805054982

> <JCHEM_POLAR_SURFACE_AREA>
181.61999999999998

> <JCHEM_REFRACTIVITY>
113.89189999999999

> <JCHEM_ROTATABLE_BOND_COUNT>
2

> <JCHEM_RULE_OF_FIVE>
0

> <ALOGPS_SOLUBILITY>
6.30e-01 g/l

> <JCHEM_TRADITIONAL_IUPAC>
cetrorelix

> <JCHEM_VEBER_RULE>
0

> <DRUGBANK_ID>
DB00254

> <SECONDARY_ACCESSION_NUMBERS>
APRD00597

> <DRUG_GROUPS>
approved; investigational; vet_approved

> <GENERIC_NAME>
Doxycycline

> <SYNONYMS>
5-hydroxy-α-6-deoxytetracycline; 6-alpha-deoxy-5-oxytetracycline; 6alpha-deoxy-5-oxytetracycline; 6α-deoxy-5-oxytetracycline; Anhydrous doxycycline; Doxiciclina; Doxycyclin; Doxycycline; Doxycycline (anhydrous); Doxycycline anhydrous; Doxycyclinum

> <PRODUCTS>
Acticlate; Acticlate CAP; Adoxa; Alodox; Alti-doxycycline - Tab 100mg; Alti-doxycycline-cap 100mg; Apo-doxy Cap 100mg; Apo-doxy Tabs 100mg; Apprilon; Atridox; BenoxylDoxy 30 Kit; BenoxylDoxy 60 Kit; BenzoDox 30 Kit; BenzoDox 60 Kit; Dom-doxycycline; Doryx; Doryx 100mg Cap; Doryx Mpc; Doxy 100; Doxy 100(tm) Doxycycline; Doxycin Cap 100mg; Doxycin Tab 100mg; Doxycyclate Hyclate; Doxycycline; Doxycycline Capsules; Doxycycline Hyclate; Doxycycline Hyclate Delayed release; Doxycycline Monohydrate; Doxycycline Tablets; Doxycycline hyclate; Doxycycline-100 Cap 100mg USP; Doxytab; LymePak; Mondoxyne; Mondoxyne NL; Mondoxyne NL 100mg; Monodox; Morgidox; NicAzel Doxy Kit; Ntp-doxycycline Capsules; Ntp-doxycycline Tablets; Nu-doxycycline Cap 100mg; Nu-doxycycline Tab 100mg; Ocudox; Okebo; Oracea; PHL-doxycycline; PMS-doxycycline; Penta-doxycycline Tablets; Periostat; Ratio-doxycycline; Rho-doxycin - Cap 100mg; Rho-doxycin Tabs - 100mg; Rho-doxycycline - Cap 100mg; Rho-doxycycline - Tab 100mg; Targadox; Teva-doxycycline; Vibra-Tabs; Vibramycin Calcium; Vibramycin Cap 100mg; Vibramycin Hyclate; Vibramycin Inj; Vibramycin Monohydrate

> <INTERNATIONAL_BRANDS>
Doxy; Doxycin; Doxylin; Jenacyclin; Microdox; NicAzelDoxyKit; Nu-Doxycycline; Supracyclin; Vibramycin

> <SALTS>
Doxycycline calcium; Doxycycline hyclate; Doxycycline hydrochloride; Doxycycline monohydrate

$$$$

  Mrv1909 11171900382D          

 45 48  0  0  0  0            999 V2000
   -6.3822   -0.4136    0.0000 C   0  0  0  0  0  0  0  0  0  0  0  0
   -6.3822    0.4113    0.0000 C   0  0  0  0  0  0  0  0  0  0  0  0
   -5.6677    0.8239    0.0000 C   0  0  0  0  0  0  0  0  0  0  0  0
   -4.9531    0.4113    0.0000 C   0  0  0  0  0  0  0  0  0  0  0  0
   -4.9531   -0.4136    0.0000 C   0  0  0  0  0  0  0  0  0  0  0  0
   -5.6677   -0.8262    0.0000 C   0  0  0  0  0  0  0  0  0  0  0  0
   -4.2386    0.8239    0.0000 C   0  0  0  0  0  0  0  0  0  0  0  0
   -3.5241    0.4113    0.0000 C   0  0  0  0  0  0  0  0  0  0  0  0
   -3.5241   -0.4136    0.0000 C   0  0  1  0  0  0  0  0  0  0  0  0
   -4.2386   -0.8262    0.0000 C   0  0  1  0  0  0  0  0  0  0  0  0
   -2.8095    0.8239    0.0000 C   0  0  0  0  0  0  0  0  0  0  0  0
   -2.0950    0.4113    0.0000 C   0  0  1  0  0  0  0  0  0  0  0  0
   -2.0950   -0.4136    0.0000 C   0  0  1  0  0  0  0  0  0  0  0  0
   -2.8095   -0.8262    0.0000 C   0  0  0  0  0  0  0  0  0  0  0  0
   -1.3805    0.8239    0.0000 C   0  0  0  0  0  0  0  0  0  0  0  0
   -0.6658    0.4113    0.0000 C   0  0  0  0  0  0  0  0  0  0  0  0
   -0.6658   -0.4136    0.0000 C   0  0  0  0  0  0  0  0  0  0  0  0
   -1.3805   -0.8262    0.0000 C   0  0  1  0  0  0  0  0  0  0  0  0
   -5.6677    1.6488    0.0000 O   0  0  0  0  0  0  0  0  0  0  0  0
   -4.2386    1.6489    0.0000 O   0  0  0  0  0  0  0  0  0  0  0  0
   -2.8095    1.6488    0.0000 O   0  0  0  0  0  0  0  0  0  0  0  0
   -1.3805    1.6489    0.0000 O   0  0  0  0  0  0  0  0  0  0  0  0
    0.0619   -0.8341    0.0000 O   0  0  0  0  0  0  0  0  0  0  0  0
    0.0619    0.8318    0.0000 C   0  0  0  0  0  0  0  0  0  0  0  0
    0.7735    0.4211    0.0000 N   0  0  0  0  0  0  0  0  0  0  0  0
    0.0617    1.6489    0.0000 O   0  0  0  0  0  0  0  0  0  0  0  0
    1.4695    0.8233    0.0000 C   0  0  0  0  0  0  0  0  0  0  0  0
    2.1736    0.4167    0.0000 N   0  0  0  0  0  0  0  0  0  0  0  0
    2.8735    0.8210    0.0000 C   0  0  0  0  0  0  0  0  0  0  0  0
    3.5756    0.4156    0.0000 C   0  0  0  0  0  0  0  0  0  0  0  0
    4.2764    0.8205    0.0000 C   0  0  0  0  0  0  0  0  0  0  0  0
    4.9781    0.4153    0.0000 C   0  0  0  0  0  0  0  0  0  0  0  0
    5.6791    0.8203    0.0000 C   0  0  2  0  0  0  0  0  0  0  0  0
    6.3807    0.4153    0.0000 N   0  0  0  0  0  0  0  0  0  0  0  0
    5.6791    1.6488    0.0000 C   0  0  0  0  0  0  0  0  0  0  0  0
    4.9532    2.0682    0.0000 O   0  0  0  0  0  0  0  0  0  0  0  0
    6.3822    2.0549    0.0000 O   0  0  0  0  0  0  0  0  0  0  0  0
   -4.2386   -1.6512    0.0000 C   0  0  0  0  0  0  0  0  0  0  0  0
   -4.9520   -1.2380    0.0000 O   0  0  0  0  0  0  0  0  0  0  0  0
   -3.5295   -1.2380    0.0000 H   0  0  0  0  0  0  0  0  0  0  0  0
   -2.0950   -1.2387    0.0000 H   0  0  0  0  0  0  0  0  0  0  0  0
   -1.3805   -1.6512    0.0000 N   0  0  0  0  0  0  0  0  0  0  0  0
   -2.1026   -2.0682    0.0000 C   0  0  0  0  0  0  0  0  0  0  0  0
   -0.6735   -2.0595    0.0000 C   0  0  0  0  0  0  0  0  0  0  0  0
   -2.0950    1.2364    0.0000 O   0  0  0  0  0  0  0  0  0  0  0  0
  1  2  2  0  0  0  0
  2  3  1  0  0  0  0
  3  4  2  0  0  0  0
  4  5  1  0  0  0  0
  5  6  2  0  0  0  0
  1  6  1  0  0  0  0
  4  7  1  0  0  0  0
  7  8  1  0  0  0  0
  8  9  1  0  0  0  0
  9 10  1  0  0  0  0
  5 10  1  0  0  0  0
  8 11  2  0  0  0  0
 11 12  1  0  0  0  0
 12 13  1  0  0  0  0
 13 14  1  0  0  0  0
  9 14  1  0  0  0  0
 12 15  1  0  0  0  0
 15 16  1  0  0  0  0
 16 17  2  0  0  0  0
 17 18  1  0  0  0  0
 13 18  1  0  0  0  0
  3 19  1  0  0  0  0
  7 20  2  0  0  0  0
 11 21  1  0  0  0  0
 15 22  2  0  0  0  0
 17 23  1  0  0  0  0
 16 24  1  0  0  0  0
 24 25  1  0  0  0  0
 24 26  2  0  0  0  0
 25 27  1  0  0  0  0
 27 28  1  0  0  0  0
 28 29  1  0  0  0  0
 29 30  1  0  0  0  0
 30 31  1  0  0  0  0
 31 32  1  0  0  0  0
 32 33  1  0  0  0  0
 33 34  1  0  0  0  0
 33 35  1  1  0  0  0
 35 36  2  0  0  0  0
 35 37  1  0  0  0  0
 10 38  1  1  0  0  0
 10 39  1  6  0  0  0
  9 40  1  1  0  0  0
 13 41  1  1  0  0  0
 18 42  1  1  0  0  0
 42 43  1  0  0  0  0
 42 44  1  0  0  0  0
 12 45  1  1  0  0  0
M  END
> <DATABASE_ID>
DB00256

> <DATABASE_NAME>
drugbank

> <SMILES>
[H][C@@]12C[C@@]3([H])C(C(=O)C4=C(O)C=CC=C4[C@@]3(C)O)=C(O)[C@]1(O)C(=O)C(C(=O)NCNCCCC[C@H](N)C(O)=O)=C(O)[C@H]2N(C)C

> <INCHI_IDENTIFIER>
InChI=1S/C29H38N4O10/c1-28(42)13-7-6-9-17(34)18(13)22(35)19-14(28)11-15-21(33(2)3)23(36)20(25(38)29(15,43)24(19)37)26(39)32-12-31-10-5-4-8-16(30)27(40)41/h6-7,9,14-16,21,31,34,36-37,42-43H,4-5,8,10-12,30H2,1-3H3,(H,32,39)(H,40,41)/t14-,15-,16-,21-,28+,29-/m0/s1

> <INCHI_KEY>
AHEVKYYGXVEWNO-UEPZRUIBSA-N

> <FORMULA>
C29H38N4O10

> <MOLECULAR_WEIGHT>
602.6328

> <EXACT_MASS>
602.258793456

> <JCHEM_ACCEPTOR_COUNT>
13

> <JCHEM_ATOM_COUNT>
81

> <JCHEM_AVERAGE_POLARIZABILITY>
62.48271132033949

> <JCHEM_BIOAVAILABILITY>
0

> <JCHEM_DONOR_COUNT>
9

> <JCHEM_FORMAL_CHARGE>
0

> <JCHEM_GHOSE_FILTER>
0

> <JCHEM_IUPAC>
(2S)-6-[({[(4S,4aS,5aS,6S,12aS)-4-(dimethylamino)-3,6,10,12,12a-pentahydroxy-6-methyl-1,11-dioxo-1,4,4a,5,5a,6,11,12a-octahydrotetracen-2-yl]formamido}methyl)amino]-2-aminohexanoic acid

> <ALOGPS_LOGP>
-0.27

> <JCHEM_LOGP>
-7.065616824824305

> <ALOGPS_LOGS>
-2.66

> <JCHEM_MDDR_LIKE_RULE>
1

> <JCHEM_NUMBER_OF_RINGS>
4

> <JCHEM_PHYSIOLOGICAL_CHARGE>
1

> <JCHEM_PKA>
3.4141432966477483

> <JCHEM_PKA_STRONGEST_ACIDIC>
2.5140057550136685

> <JCHEM_PKA_STRONGEST_BASIC>
9.77069618892244

> <JCHEM_POLAR_SURFACE_AREA>
242.98

> <JCHEM_REFRACTIVITY>
154.50959999999998

> <JCHEM_ROTATABLE_BOND_COUNT>
10

> <JCHEM_RULE_OF_FIVE>
0

> <ALOGPS_SOLUBILITY>
1.31e+00 g/l

> <JCHEM_TRADITIONAL_IUPAC>
cetrorelix

> <JCHEM_VEBER_RULE>
0

> <DRUGBANK_ID>
DB00256

> <SECONDARY_ACCESSION_NUMBERS>
APRD00565; EXPT01049

> <DRUG_GROUPS>
approved; investigational

> <GENERIC_NAME>
Lymecycline

> <SYNONYMS>
(+)-N-(5-Amino-5-carboxypentylaminomethyl)-4-dimethylamino-1,4,4a,5,5a,6,11,12a-octahydro-3,6,10,12,12a-pentahydroxy-6-methyl-1,11-dioxonaphthacene-2-carboxamide; Limeciclina; Lymecycline; Lymecyclinum; N-Lysinomethyltetracycline; N2-(((+)-5-Amino-5-carboxypentylamino)methyl)tetracycline; N6-((4-(Dimethylamino)-1,4,4a,5,5a,6,11,12a-octahydro-3,6,10,12,12a-pentahydroxy-6-methyl-1,11-dioxo-2-naphthacenecarboxamido)methyl)lysine; Tetracycline-L-methylene lysine; Tetracycline-L-methylenelysine

> <INTERNATIONAL_BRANDS>
Eficiclina; Tetralisal; Tetralysal

$$$$
5344
  -OEChem-10051719113D

 31 32  0     0  0  0  0  0  0999 V2000
    0.3220    1.1320   -0.3603 S   0  0  0  0  0  0  0  0  0  0  0  0
   -2.6489    1.1014    0.3719 O   0  0  0  0  0  0  0  0  0  0  0  0
    0.2935    1.7216   -1.6936 O   0  0  0  0  0  0  0  0  0  0  0  0
   -0.0019    1.9723    0.7862 O   0  0  0  0  0  0  0  0  0  0  0  0
   -0.7014   -0.2540   -0.3665 N   0  0  0  0  0  0  0  0  0  0  0  0
   -4.0139    0.9303    0.5675 N   0  0  0  0  0  0  0  0  0  0  0  0
    5.7212   -1.2182    0.4665 N   0  0  0  0  0  0  0  0  0  0  0  0
    1.9072    0.4418   -0.1174 C   0  0  0  0  0  0  0  0  0  0  0  0
   -2.0951   -0.0680   -0.0642 C   0  0  0  0  0  0  0  0  0  0  0  0
   -3.0876   -1.0190   -0.1599 C   0  0  0  0  0  0  0  0  0  0  0  0
   -4.2525   -0.3437    0.2434 C   0  0  0  0  0  0  0  0  0  0  0  0
    2.6807    0.0677   -1.2163 C   0  0  0  0  0  0  0  0  0  0  0  0
    2.4002    0.2642    1.1754 C   0  0  0  0  0  0  0  0  0  0  0  0
   -2.9543   -2.4220   -0.5874 C   0  0  0  0  0  0  0  0  0  0  0  0
    3.9471   -0.4840   -1.0224 C   0  0  0  0  0  0  0  0  0  0  0  0
    3.6667   -0.2873    1.3691 C   0  0  0  0  0  0  0  0  0  0  0  0
    4.4401   -0.6615    0.2702 C   0  0  0  0  0  0  0  0  0  0  0  0
   -5.6230   -0.8738    0.3375 C   0  0  0  0  0  0  0  0  0  0  0  0
   -0.3186   -1.2064   -0.3519 H   0  0  0  0  0  0  0  0  0  0  0  0
    2.3146    0.1898   -2.2318 H   0  0  0  0  0  0  0  0  0  0  0  0
    1.8115    0.5427    2.0449 H   0  0  0  0  0  0  0  0  0  0  0  0
   -2.3592   -2.4961   -1.5036 H   0  0  0  0  0  0  0  0  0  0  0  0
   -2.4597   -3.0126    0.1905 H   0  0  0  0  0  0  0  0  0  0  0  0
   -3.9272   -2.8802   -0.7904 H   0  0  0  0  0  0  0  0  0  0  0  0
    4.5396   -0.7730   -1.8867 H   0  0  0  0  0  0  0  0  0  0  0  0
    4.0393   -0.4218    2.3814 H   0  0  0  0  0  0  0  0  0  0  0  0
   -5.6505   -1.7603    0.9795 H   0  0  0  0  0  0  0  0  0  0  0  0
   -6.3175   -0.1383    0.7572 H   0  0  0  0  0  0  0  0  0  0  0  0
   -5.9938   -1.1562   -0.6532 H   0  0  0  0  0  0  0  0  0  0  0  0
    6.2817   -1.4913   -0.3297 H   0  0  0  0  0  0  0  0  0  0  0  0
    6.0783   -1.3486    1.4036 H   0  0  0  0  0  0  0  0  0  0  0  0
  1  3  2  0  0  0  0
  1  4  2  0  0  0  0
  1  5  1  0  0  0  0
  1  8  1  0  0  0  0
  2  6  1  0  0  0  0
  2  9  1  0  0  0  0
  5  9  1  0  0  0  0
  5 19  1  0  0  0  0
  6 11  2  0  0  0  0
  7 17  1  0  0  0  0
  7 30  1  0  0  0  0
  7 31  1  0  0  0  0
  8 12  2  0  0  0  0
  8 13  1  0  0  0  0
  9 10  2  0  0  0  0
 10 11  1  0  0  0  0
 10 14  1  0  0  0  0
 11 18  1  0  0  0  0
 12 15  1  0  0  0  0
 12 20  1  0  0  0  0
 13 16  2  0  0  0  0
 13 21  1  0  0  0  0
 14 22  1  0  0  0  0
 14 23  1  0  0  0  0
 14 24  1  0  0  0  0
 15 17  2  0  0  0  0
 15 25  1  0  0  0  0
 16 17  1  0  0  0  0
 16 26  1  0  0  0  0
 18 27  1  0  0  0  0
 18 28  1  0  0  0  0
 18 29  1  0  0  0  0
M  END
> <DATABASE_ID>
DB00263

> <DATABASE_NAME>
drugbank

> <ORIGINAL_SOURCE>
PUBCHEM

> <ORIGINAL_SOURCE_URL>
https://pubchem.ncbi.nlm.nih.gov/rest/pug/compound/inchikey/NHUHCSRWZMLRLA-UHFFFAOYSA-N/SDF?record_type=3d

> <SMILES>
CC1=NOC(NS(=O)(=O)C2=CC=C(N)C=C2)=C1C

> <INCHI_IDENTIFIER>
InChI=1S/C11H13N3O3S/c1-7-8(2)13-17-11(7)14-18(15,16)10-5-3-9(12)4-6-10/h3-6,14H,12H2,1-2H3

> <INCHI_KEY>
NHUHCSRWZMLRLA-UHFFFAOYSA-N

> <FORMULA>
C11H13N3O3S

> <MOLECULAR_WEIGHT>
267.304

> <EXACT_MASS>
267.067761987

> <JCHEM_ACCEPTOR_COUNT>
4

> <JCHEM_AVERAGE_POLARIZABILITY>
26.92608944822496

> <JCHEM_BIOAVAILABILITY>
1

> <JCHEM_DONOR_COUNT>
2

> <JCHEM_FORMAL_CHARGE>
0

> <JCHEM_GHOSE_FILTER>
1

> <JCHEM_IUPAC>
4-amino-N-(dimethyl-1,2-oxazol-5-yl)benzene-1-sulfonamide

> <ALOGPS_LOGP>
1.14

> <JCHEM_LOGP>
0.7306131126666664

> <ALOGPS_LOGS>
-2.93

> <JCHEM_MDDR_LIKE_RULE>
0

> <JCHEM_NUMBER_OF_RINGS>
2

> <JCHEM_PHYSIOLOGICAL_CHARGE>
-1

> <JCHEM_PKA_STRONGEST_ACIDIC>
5.804935006005729

> <JCHEM_PKA_STRONGEST_BASIC>
2.1668008239015366

> <JCHEM_POLAR_SURFACE_AREA>
98.22

> <JCHEM_REFRACTIVITY>
67.91860000000001

> <JCHEM_ROTATABLE_BOND_COUNT>
2

> <JCHEM_RULE_OF_FIVE>
1

> <ALOGPS_SOLUBILITY>
3.13e-01 g/l

> <JCHEM_TRADITIONAL_IUPAC>
ganda

> <JCHEM_VEBER_RULE>
0

$$$$
21319
  -OEChem-02062017453D

 47 50  0     1  0  0  0  0  0999 V2000
    2.3995   -1.2986    2.7486 Cl  0  0  0  0  0  0  0  0  0  0  0  0
   -1.3227    0.8798   -1.6011 S   0  0  0  0  0  0  0  0  0  0  0  0
    1.7465   -1.4785   -2.3245 F   0  0  0  0  0  0  0  0  0  0  0  0
   -1.7511    0.3290    2.7492 O   0  0  0  0  0  0  0  0  0  0  0  0
   -5.3699   -1.0317   -0.0297 O   0  0  0  0  0  0  0  0  0  0  0  0
   -5.1745    0.9172    1.1363 O   0  0  0  0  0  0  0  0  0  0  0  0
    1.4980    2.8665   -0.5440 O   0  0  0  0  0  0  0  0  0  0  0  0
    4.9816    0.4941   -0.4023 O   0  0  0  0  0  0  0  0  0  0  0  0
   -2.5674    1.0796    0.6658 N   0  0  0  0  0  0  0  0  0  0  0  0
    0.6071    1.1921    0.7664 N   0  0  0  0  0  0  0  0  0  0  0  0
    4.3139   -0.7181   -0.2768 N   0  0  0  0  0  0  0  0  0  0  0  0
   -1.6820    1.9239   -0.1417 C   0  0  1  0  0  0  0  0  0  0  0  0
   -2.9986    0.0752   -1.4863 C   0  0  0  0  0  0  0  0  0  0  0  0
   -3.2481   -0.0321    0.0335 C   0  0  2  0  0  0  0  0  0  0  0  0
   -0.6759    1.8640    1.0158 C   0  0  1  0  0  0  0  0  0  0  0  0
   -1.7179    0.9799    1.7296 C   0  0  0  0  0  0  0  0  0  0  0  0
   -4.0012    0.9638   -2.2351 C   0  0  0  0  0  0  0  0  0  0  0  0
   -2.9328   -1.3064   -2.1398 C   0  0  0  0  0  0  0  0  0  0  0  0
   -4.6823    0.0323    0.4521 C   0  0  0  0  0  0  0  0  0  0  0  0
    1.6198    1.7621   -0.0149 C   0  0  0  0  0  0  0  0  0  0  0  0
    2.8570    0.9810   -0.1469 C   0  0  0  0  0  0  0  0  0  0  0  0
    3.0279   -0.3901   -0.1233 C   0  0  0  0  0  0  0  0  0  0  0  0
    4.0849    1.5101   -0.3213 C   0  0  0  0  0  0  0  0  0  0  0  0
    2.0310   -1.4162    0.0376 C   0  0  0  0  0  0  0  0  0  0  0  0
    4.6309    2.8694   -0.4363 C   0  0  0  0  0  0  0  0  0  0  0  0
    1.6737   -1.8980    1.2972 C   0  0  0  0  0  0  0  0  0  0  0  0
    1.4167   -1.9292   -1.1049 C   0  0  0  0  0  0  0  0  0  0  0  0
    0.7023   -2.8924    1.4138 C   0  0  0  0  0  0  0  0  0  0  0  0
    0.4455   -2.9237   -0.9881 C   0  0  0  0  0  0  0  0  0  0  0  0
    0.0884   -3.4053    0.2712 C   0  0  0  0  0  0  0  0  0  0  0  0
   -2.1106    2.9076   -0.3539 H   0  0  0  0  0  0  0  0  0  0  0  0
   -2.8186   -0.9529    0.4508 H   0  0  0  0  0  0  0  0  0  0  0  0
   -0.5304    2.8222    1.5290 H   0  0  0  0  0  0  0  0  0  0  0  0
   -4.1039    1.9528   -1.7743 H   0  0  0  0  0  0  0  0  0  0  0  0
   -3.7029    1.1105   -3.2802 H   0  0  0  0  0  0  0  0  0  0  0  0
   -4.9977    0.5088   -2.2547 H   0  0  0  0  0  0  0  0  0  0  0  0
   -2.6295   -1.2413   -3.1913 H   0  0  0  0  0  0  0  0  0  0  0  0
   -2.2279   -1.9667   -1.6265 H   0  0  0  0  0  0  0  0  0  0  0  0
   -3.9107   -1.7995   -2.1171 H   0  0  0  0  0  0  0  0  0  0  0  0
    0.8020    0.3381    1.2727 H   0  0  0  0  0  0  0  0  0  0  0  0
   -6.3145   -1.0074    0.2337 H   0  0  0  0  0  0  0  0  0  0  0  0
    5.7234    2.8691   -0.3689 H   0  0  0  0  0  0  0  0  0  0  0  0
    4.3517    3.3139   -1.3966 H   0  0  0  0  0  0  0  0  0  0  0  0
    4.2479    3.5103    0.3640 H   0  0  0  0  0  0  0  0  0  0  0  0
    0.4108   -3.2779    2.3875 H   0  0  0  0  0  0  0  0  0  0  0  0
   -0.0307   -3.3239   -1.8782 H   0  0  0  0  0  0  0  0  0  0  0  0
   -0.6687   -4.1786    0.3617 H   0  0  0  0  0  0  0  0  0  0  0  0
  1 26  1  0  0  0  0
  2 12  1  0  0  0  0
  2 13  1  0  0  0  0
  3 27  1  0  0  0  0
  4 16  2  0  0  0  0
  5 19  1  0  0  0  0
  5 41  1  0  0  0  0
  6 19  2  0  0  0  0
  7 20  2  0  0  0  0
  8 11  1  0  0  0  0
  8 23  1  0  0  0  0
  9 12  1  0  0  0  0
  9 14  1  0  0  0  0
  9 16  1  0  0  0  0
 10 15  1  0  0  0  0
 10 20  1  0  0  0  0
 10 40  1  0  0  0  0
 11 22  2  0  0  0  0
 12 15  1  0  0  0  0
 12 31  1  0  0  0  0
 13 14  1  0  0  0  0
 13 17  1  0  0  0  0
 13 18  1  0  0  0  0
 14 19  1  0  0  0  0
 14 32  1  0  0  0  0
 15 16  1  0  0  0  0
 15 33  1  0  0  0  0
 17 34  1  0  0  0  0
 17 35  1  0  0  0  0
 17 36  1  0  0  0  0
 18 37  1  0  0  0  0
 18 38  1  0  0  0  0
 18 39  1  0  0  0  0
 20 21  1  0  0  0  0
 21 22  1  0  0  0  0
 21 23  2  0  0  0  0
 22 24  1  0  0  0  0
 23 25  1  0  0  0  0
 24 26  1  0  0  0  0
 24 27  2  0  0  0  0
 25 42  1  0  0  0  0
 25 43  1  0  0  0  0
 25 44  1  0  0  0  0
 26 28  2  0  0  0  0
 27 29  1  0  0  0  0
 28 30  1  0  0  0  0
 28 45  1  0  0  0  0
 29 30  2  0  0  0  0
 29 46  1  0  0  0  0
 30 47  1  0  0  0  0
M  END
> <DATABASE_ID>
DB00301

> <DATABASE_NAME>
drugbank

> <ORIGINAL_SOURCE>
PUBCHEM

> <ORIGINAL_SOURCE_URL>
https://pubchem.ncbi.nlm.nih.gov/rest/pug/compound/inchikey/UIOFUWFRIANQPC-JKIFEVAISA-N/SDF?record_type=3d

> <SMILES>
[H][C@]12SC(C)(C)[C@@H](N1C(=O)[C@H]2NC(=O)C1=C(C)ON=C1C1=C(Cl)C=CC=C1F)C(O)=O

> <INCHI_IDENTIFIER>
InChI=1S/C19H17ClFN3O5S/c1-7-10(12(23-29-7)11-8(20)5-4-6-9(11)21)15(25)22-13-16(26)24-14(18(27)28)19(2,3)30-17(13)24/h4-6,13-14,17H,1-3H3,(H,22,25)(H,27,28)/t13-,14+,17-/m1/s1

> <INCHI_KEY>
UIOFUWFRIANQPC-JKIFEVAISA-N

> <FORMULA>
C19H17ClFN3O5S

> <MOLECULAR_WEIGHT>
453.872

> <EXACT_MASS>
453.056147271

> <JCHEM_ACCEPTOR_COUNT>
5

> <JCHEM_ATOM_COUNT>
47

> <JCHEM_AVERAGE_NEUTRAL_MICROSPECIES_CHARGE>
-0.9994415917645392

> <JCHEM_AVERAGE_POLARIZABILITY>
41.690961989530194

> <JCHEM_BIOAVAILABILITY>
1

> <JCHEM_DONOR_COUNT>
2

> <JCHEM_FORMAL_CHARGE>
0

> <JCHEM_GHOSE_FILTER>
1

> <JCHEM_IUPAC>
(2S,5R,6R)-6-[3-(2-chloro-6-fluorophenyl)-5-methyl-1,2-oxazole-4-amido]-3,3-dimethyl-7-oxo-4-thia-1-azabicyclo[3.2.0]heptane-2-carboxylic acid

> <ALOGPS_LOGP>
2.69

> <JCHEM_LOGP>
2.444441594666667

> <ALOGPS_LOGS>
-3.92

> <JCHEM_MDDR_LIKE_RULE>
0

> <JCHEM_NEUTRAL_CHARGE>
-1

> <JCHEM_NUMBER_OF_RINGS>
4

> <JCHEM_PHYSIOLOGICAL_CHARGE>
-1

> <JCHEM_PKA>
13.638424587889926

> <JCHEM_PKA_STRONGEST_ACIDIC>
3.747546333668006

> <JCHEM_PKA_STRONGEST_BASIC>
-0.9294601599604333

> <JCHEM_POLAR_SURFACE_AREA>
112.74

> <JCHEM_REFRACTIVITY>
106.85350000000001

> <JCHEM_ROTATABLE_BOND_COUNT>
3

> <JCHEM_RULE_OF_FIVE>
1

> <ALOGPS_SOLUBILITY>
5.45e-02 g/l

> <JCHEM_TRADITIONAL_IUPAC>
cefazolin sodium

> <JCHEM_VEBER_RULE>
0

$$$$
43672
  -OEChem-10051719123D

 63 66  0     1  0  0  0  0  0999 V2000
   -3.4365   -0.4241   -1.2130 S   0  0  0  0  0  0  0  0  0  0  0  0
   -3.9227    2.3296    2.1918 O   0  0  0  0  0  0  0  0  0  0  0  0
   -7.7231    0.5873    0.9740 O   0  0  0  0  0  0  0  0  0  0  0  0
   -7.1242    2.2062   -0.5147 O   0  0  0  0  0  0  0  0  0  0  0  0
   -0.0858    1.0010   -1.2188 O   0  0  0  0  0  0  0  0  0  0  0  0
    2.8090   -0.6899    2.3564 O   0  0  0  0  0  0  0  0  0  0  0  0
    3.7074    0.7396   -1.5127 O   0  0  0  0  0  0  0  0  0  0  0  0
    6.2015    0.5452   -2.2873 O   0  0  0  0  0  0  0  0  0  0  0  0
   -4.5112    1.5817    0.0320 N   0  0  0  0  0  0  0  0  0  0  0  0
   -1.4387    0.9922    0.6641 N   0  0  0  0  0  0  0  0  0  0  0  0
    1.9311   -0.1236    0.3070 N   0  0  0  0  0  0  0  0  0  0  0  0
    4.2728   -0.0111    0.6545 N   0  0  0  0  0  0  0  0  0  0  0  0
    6.9155    0.7194   -0.0726 N   0  0  0  0  0  0  0  0  0  0  0  0
   -3.4256    1.3843   -0.9333 C   0  0  1  0  0  0  0  0  0  0  0  0
   -5.2761   -0.4957   -0.9301 C   0  0  0  0  0  0  0  0  0  0  0  0
   -5.5147    0.5475    0.1827 C   0  0  2  0  0  0  0  0  0  0  0  0
   -2.4631    1.9122    0.1394 C   0  0  1  0  0  0  0  0  0  0  0  0
   -3.7117    2.0542    1.0324 C   0  0  0  0  0  0  0  0  0  0  0  0
   -5.6533   -1.9035   -0.4650 C   0  0  0  0  0  0  0  0  0  0  0  0
   -5.9711   -0.1777   -2.2609 C   0  0  0  0  0  0  0  0  0  0  0  0
   -6.8499    1.2202    0.1529 C   0  0  0  0  0  0  0  0  0  0  0  0
   -0.3246    0.6144   -0.0762 C   0  0  0  0  0  0  0  0  0  0  0  0
    0.5559   -0.3816    0.6674 C   0  0  1  0  0  0  0  0  0  0  0  0
    0.1558   -1.8096    0.3789 C   0  0  0  0  0  0  0  0  0  0  0  0
    2.9843   -0.3003    1.1981 C   0  0  0  0  0  0  0  0  0  0  0  0
   -0.7921   -2.4441    1.1818 C   0  0  0  0  0  0  0  0  0  0  0  0
    0.7339   -2.4936   -0.6907 C   0  0  0  0  0  0  0  0  0  0  0  0
    5.4186   -0.3283    1.5043 C   0  0  0  0  0  0  0  0  0  0  0  0
    6.5119    0.7006    1.3194 C   0  0  0  0  0  0  0  0  0  0  0  0
    4.5336    0.4358   -0.6583 C   0  0  0  0  0  0  0  0  0  0  0  0
   -1.1619   -3.7624    0.9155 C   0  0  0  0  0  0  0  0  0  0  0  0
    0.3640   -3.8119   -0.9570 C   0  0  0  0  0  0  0  0  0  0  0  0
    5.9789    0.5656   -1.0819 C   0  0  0  0  0  0  0  0  0  0  0  0
    8.3119    0.9894   -0.3717 C   0  0  0  0  0  0  0  0  0  0  0  0
   -0.5839   -4.4462   -0.1539 C   0  0  0  0  0  0  0  0  0  0  0  0
    8.5839    2.4772   -0.4546 C   0  0  0  0  0  0  0  0  0  0  0  0
   -3.5342    2.0050   -1.8273 H   0  0  0  0  0  0  0  0  0  0  0  0
   -5.3649    0.1087    1.1788 H   0  0  0  0  0  0  0  0  0  0  0  0
   -2.0247    2.8880   -0.1042 H   0  0  0  0  0  0  0  0  0  0  0  0
   -6.7281   -1.9678   -0.2602 H   0  0  0  0  0  0  0  0  0  0  0  0
   -5.1286   -2.1835    0.4558 H   0  0  0  0  0  0  0  0  0  0  0  0
   -5.4197   -2.6568   -1.2263 H   0  0  0  0  0  0  0  0  0  0  0  0
   -5.7394    0.8304   -2.6222 H   0  0  0  0  0  0  0  0  0  0  0  0
   -7.0604   -0.2480   -2.1605 H   0  0  0  0  0  0  0  0  0  0  0  0
   -5.6800   -0.8878   -3.0442 H   0  0  0  0  0  0  0  0  0  0  0  0
   -1.5487    0.6063    1.5989 H   0  0  0  0  0  0  0  0  0  0  0  0
    0.4665   -0.1989    1.7460 H   0  0  0  0  0  0  0  0  0  0  0  0
   -8.6063    1.0141    0.9685 H   0  0  0  0  0  0  0  0  0  0  0  0
    2.1244    0.1752   -0.6425 H   0  0  0  0  0  0  0  0  0  0  0  0
   -1.2511   -1.9226    2.0174 H   0  0  0  0  0  0  0  0  0  0  0  0
    1.4632   -2.0230   -1.3439 H   0  0  0  0  0  0  0  0  0  0  0  0
    5.1273   -0.3703    2.5584 H   0  0  0  0  0  0  0  0  0  0  0  0
    5.7687   -1.3266    1.2137 H   0  0  0  0  0  0  0  0  0  0  0  0
    6.1644    1.7062    1.5821 H   0  0  0  0  0  0  0  0  0  0  0  0
    7.3683    0.4475    1.9527 H   0  0  0  0  0  0  0  0  0  0  0  0
   -1.9009   -4.2558    1.5399 H   0  0  0  0  0  0  0  0  0  0  0  0
    0.8111   -4.3436   -1.7920 H   0  0  0  0  0  0  0  0  0  0  0  0
    8.5584    0.5331   -1.3372 H   0  0  0  0  0  0  0  0  0  0  0  0
    8.9464    0.5142    0.3839 H   0  0  0  0  0  0  0  0  0  0  0  0
   -0.8728   -5.4722   -0.3621 H   0  0  0  0  0  0  0  0  0  0  0  0
    9.6349    2.6602   -0.6982 H   0  0  0  0  0  0  0  0  0  0  0  0
    8.3632    2.9719    0.4970 H   0  0  0  0  0  0  0  0  0  0  0  0
    7.9669    2.9497   -1.2262 H   0  0  0  0  0  0  0  0  0  0  0  0
  1 14  1  0  0  0  0
  1 15  1  0  0  0  0
  2 18  2  0  0  0  0
  3 21  1  0  0  0  0
  3 48  1  0  0  0  0
  4 21  2  0  0  0  0
  5 22  2  0  0  0  0
  6 25  2  0  0  0  0
  7 30  2  0  0  0  0
  8 33  2  0  0  0  0
  9 14  1  0  0  0  0
  9 16  1  0  0  0  0
  9 18  1  0  0  0  0
 10 17  1  0  0  0  0
 10 22  1  0  0  0  0
 10 46  1  0  0  0  0
 11 23  1  0  0  0  0
 11 25  1  0  0  0  0
 11 49  1  0  0  0  0
 12 25  1  0  0  0  0
 12 28  1  0  0  0  0
 12 30  1  0  0  0  0
 13 29  1  0  0  0  0
 13 33  1  0  0  0  0
 13 34  1  0  0  0  0
 14 17  1  0  0  0  0
 14 37  1  0  0  0  0
 15 16  1  0  0  0  0
 15 19  1  0  0  0  0
 15 20  1  0  0  0  0
 16 21  1  0  0  0  0
 16 38  1  0  0  0  0
 17 18  1  0  0  0  0
 17 39  1  0  0  0  0
 19 40  1  0  0  0  0
 19 41  1  0  0  0  0
 19 42  1  0  0  0  0
 20 43  1  0  0  0  0
 20 44  1  0  0  0  0
 20 45  1  0  0  0  0
 22 23  1  0  0  0  0
 23 24  1  0  0  0  0
 23 47  1  0  0  0  0
 24 26  2  0  0  0  0
 24 27  1  0  0  0  0
 26 31  1  0  0  0  0
 26 50  1  0  0  0  0
 27 32  2  0  0  0  0
 27 51  1  0  0  0  0
 28 29  1  0  0  0  0
 28 52  1  0  0  0  0
 28 53  1  0  0  0  0
 29 54  1  0  0  0  0
 29 55  1  0  0  0  0
 30 33  1  0  0  0  0
 31 35  2  0  0  0  0
 31 56  1  0  0  0  0
 32 35  1  0  0  0  0
 32 57  1  0  0  0  0
 34 36  1  0  0  0  0
 34 58  1  0  0  0  0
 34 59  1  0  0  0  0
 35 60  1  0  0  0  0
 36 61  1  0  0  0  0
 36 62  1  0  0  0  0
 36 63  1  0  0  0  0
M  END
> <DATABASE_ID>
DB00319

> <DATABASE_NAME>
drugbank

> <ORIGINAL_SOURCE>
PUBCHEM

> <ORIGINAL_SOURCE_URL>
https://pubchem.ncbi.nlm.nih.gov/rest/pug/compound/inchikey/IVBHGBMCVLDMKU-GXNBUGAJSA-N/SDF?record_type=3d

> <SMILES>
[H][C@]12SC(C)(C)[C@@H](N1C(=O)[C@H]2NC(=O)[C@H](NC(=O)N1CCN(CC)C(=O)C1=O)C1=CC=CC=C1)C(O)=O

> <INCHI_IDENTIFIER>
InChI=1S/C23H27N5O7S/c1-4-26-10-11-27(19(32)18(26)31)22(35)25-13(12-8-6-5-7-9-12)16(29)24-14-17(30)28-15(21(33)34)23(2,3)36-20(14)28/h5-9,13-15,20H,4,10-11H2,1-3H3,(H,24,29)(H,25,35)(H,33,34)/t13-,14-,15+,20-/m1/s1

> <INCHI_KEY>
IVBHGBMCVLDMKU-GXNBUGAJSA-N

> <FORMULA>
C23H27N5O7S

> <MOLECULAR_WEIGHT>
517.555

> <EXACT_MASS>
517.163118933

> <JCHEM_ACCEPTOR_COUNT>
7

> <JCHEM_AVERAGE_POLARIZABILITY>
51.770624623707036

> <JCHEM_BIOAVAILABILITY>
1

> <JCHEM_DONOR_COUNT>
3

> <JCHEM_FORMAL_CHARGE>
0

> <JCHEM_GHOSE_FILTER>
0

> <JCHEM_IUPAC>
(2S,5R,6R)-6-[(2R)-2-[(4-ethyl-2,3-dioxopiperazine-1-carbonyl)amino]-2-phenylacetamido]-3,3-dimethyl-7-oxo-4-thia-1-azabicyclo[3.2.0]heptane-2-carboxylic acid

> <ALOGPS_LOGP>
0.67

> <JCHEM_LOGP>
-0.2584901896666671

> <ALOGPS_LOGS>
-3.64

> <JCHEM_MDDR_LIKE_RULE>
1

> <JCHEM_NUMBER_OF_RINGS>
4

> <JCHEM_PHYSIOLOGICAL_CHARGE>
-1

> <JCHEM_PKA>
11.595441870353845

> <JCHEM_PKA_STRONGEST_ACIDIC>
3.4850654965939314

> <JCHEM_PKA_STRONGEST_BASIC>
-4.256401656507363

> <JCHEM_POLAR_SURFACE_AREA>
156.42999999999998

> <JCHEM_REFRACTIVITY>
126.29669999999999

> <JCHEM_ROTATABLE_BOND_COUNT>
6

> <JCHEM_RULE_OF_FIVE>
0

> <ALOGPS_SOLUBILITY>
1.19e-01 g/l

> <JCHEM_TRADITIONAL_IUPAC>
piperacillin

> <JCHEM_VEBER_RULE>
0

$$$$
72474
  -OEChem-10051719133D

 48 51  0     1  0  0  0  0  0999 V2000
    2.0618   -2.5049    0.5781 F   0  0  0  0  0  0  0  0  0  0  0  0
   -3.0074   -2.4031    0.2757 O   0  0  0  0  0  0  0  0  0  0  0  0
   -5.3038   -1.6262   -0.6386 O   0  0  0  0  0  0  0  0  0  0  0  0
   -5.8652    0.4587    0.1154 O   0  0  0  0  0  0  0  0  0  0  0  0
   -1.7898    1.4377   -0.3405 N   0  0  0  0  0  0  0  0  0  0  0  0
    2.8956    0.0938    0.1605 N   0  0  1  0  0  0  0  0  0  0  0  0
    5.6345    0.8670   -0.0272 N   0  0  0  0  0  0  0  0  0  0  0  0
   -1.4435    2.8569   -0.5722 C   0  0  0  0  0  0  0  0  0  0  0  0
   -2.0502    3.9375    0.2599 C   0  0  0  0  0  0  0  0  0  0  0  0
   -0.5934    3.6056    0.4000 C   0  0  0  0  0  0  0  0  0  0  0  0
   -0.7883    0.4522   -0.1092 C   0  0  0  0  0  0  0  0  0  0  0  0
   -3.1209    1.0685   -0.3493 C   0  0  0  0  0  0  0  0  0  0  0  0
   -1.1698   -0.8895    0.1082 C   0  0  0  0  0  0  0  0  0  0  0  0
    1.5364   -0.2386    0.1440 C   0  0  0  0  0  0  0  0  0  0  0  0
    3.7799   -0.5649   -0.8118 C   0  0  0  0  0  0  0  0  0  0  0  0
    0.5825    0.7567   -0.0867 C   0  0  0  0  0  0  0  0  0  0  0  0
    5.2380   -0.5124   -0.3317 C   0  0  1  0  0  0  0  0  0  0  0  0
    3.3111    1.4320    0.5928 C   0  0  0  0  0  0  0  0  0  0  0  0
    4.7784    1.4236    1.0183 C   0  0  0  0  0  0  0  0  0  0  0  0
   -0.2133   -1.8858    0.3392 C   0  0  0  0  0  0  0  0  0  0  0  0
   -3.5889   -0.1707   -0.1551 C   0  0  0  0  0  0  0  0  0  0  0  0
   -2.6098   -1.2593    0.0931 C   0  0  0  0  0  0  0  0  0  0  0  0
    1.1394   -1.5557    0.3563 C   0  0  0  0  0  0  0  0  0  0  0  0
    6.1755   -1.0783   -1.3970 C   0  0  0  0  0  0  0  0  0  0  0  0
   -0.5514   -3.3231    0.5774 C   0  0  0  0  0  0  0  0  0  0  0  0
   -5.0376   -0.3780   -0.1995 C   0  0  0  0  0  0  0  0  0  0  0  0
   -1.2941    3.0699   -1.6259 H   0  0  0  0  0  0  0  0  0  0  0  0
   -2.7012    3.6704    1.0832 H   0  0  0  0  0  0  0  0  0  0  0  0
   -2.3105    4.8673   -0.2309 H   0  0  0  0  0  0  0  0  0  0  0  0
    0.1241    4.3142    0.0044 H   0  0  0  0  0  0  0  0  0  0  0  0
   -0.2952    3.1433    1.3331 H   0  0  0  0  0  0  0  0  0  0  0  0
   -3.7921    1.8986   -0.5484 H   0  0  0  0  0  0  0  0  0  0  0  0
    3.6752   -0.0593   -1.7815 H   0  0  0  0  0  0  0  0  0  0  0  0
    3.5054   -1.6130   -0.9739 H   0  0  0  0  0  0  0  0  0  0  0  0
    5.3463   -1.1230    0.5743 H   0  0  0  0  0  0  0  0  0  0  0  0
    0.9182    1.7625   -0.3100 H   0  0  0  0  0  0  0  0  0  0  0  0
    2.7113    1.7686    1.4476 H   0  0  0  0  0  0  0  0  0  0  0  0
    3.1716    2.1503   -0.2253 H   0  0  0  0  0  0  0  0  0  0  0  0
    5.1014    2.4467    1.2400 H   0  0  0  0  0  0  0  0  0  0  0  0
    4.9034    0.8472    1.9433 H   0  0  0  0  0  0  0  0  0  0  0  0
    5.5497    1.4368   -0.8693 H   0  0  0  0  0  0  0  0  0  0  0  0
    5.9190   -2.1190   -1.6226 H   0  0  0  0  0  0  0  0  0  0  0  0
    6.1177   -0.5077   -2.3308 H   0  0  0  0  0  0  0  0  0  0  0  0
    7.2157   -1.0597   -1.0529 H   0  0  0  0  0  0  0  0  0  0  0  0
   -1.1610   -3.4351    1.4800 H   0  0  0  0  0  0  0  0  0  0  0  0
   -1.0631   -3.7516   -0.2905 H   0  0  0  0  0  0  0  0  0  0  0  0
    0.3382   -3.9424    0.7371 H   0  0  0  0  0  0  0  0  0  0  0  0
   -6.2676   -1.8040   -0.6821 H   0  0  0  0  0  0  0  0  0  0  0  0
  1 23  1  0  0  0  0
  2 22  2  0  0  0  0
  3 26  1  0  0  0  0
  3 48  1  0  0  0  0
  4 26  2  0  0  0  0
  5  8  1  0  0  0  0
  5 11  1  0  0  0  0
  5 12  1  0  0  0  0
  6 14  1  0  0  0  0
  6 15  1  0  0  0  0
  6 18  1  0  0  0  0
  7 17  1  0  0  0  0
  7 19  1  0  0  0  0
  7 41  1  0  0  0  0
  8  9  1  0  0  0  0
  8 10  1  0  0  0  0
  8 27  1  0  0  0  0
  9 10  1  0  0  0  0
  9 28  1  0  0  0  0
  9 29  1  0  0  0  0
 10 30  1  0  0  0  0
 10 31  1  0  0  0  0
 11 13  1  0  0  0  0
 11 16  2  0  0  0  0
 12 21  2  0  0  0  0
 12 32  1  0  0  0  0
 13 20  2  0  0  0  0
 13 22  1  0  0  0  0
 14 16  1  0  0  0  0
 14 23  2  0  0  0  0
 15 17  1  0  0  0  0
 15 33  1  0  0  0  0
 15 34  1  0  0  0  0
 16 36  1  0  0  0  0
 17 24  1  0  0  0  0
 17 35  1  0  0  0  0
 18 19  1  0  0  0  0
 18 37  1  0  0  0  0
 18 38  1  0  0  0  0
 19 39  1  0  0  0  0
 19 40  1  0  0  0  0
 20 23  1  0  0  0  0
 20 25  1  0  0  0  0
 21 22  1  0  0  0  0
 21 26  1  0  0  0  0
 24 42  1  0  0  0  0
 24 43  1  0  0  0  0
 24 44  1  0  0  0  0
 25 45  1  0  0  0  0
 25 46  1  0  0  0  0
 25 47  1  0  0  0  0
M  END
> <DATABASE_ID>
DB00365

> <DATABASE_NAME>
drugbank

> <ORIGINAL_SOURCE>
PUBCHEM

> <ORIGINAL_SOURCE_URL>
https://pubchem.ncbi.nlm.nih.gov/rest/pug/compound/inchikey/AIJTTZAVMXIJGM-UHFFFAOYSA-N/SDF?record_type=3d

> <SMILES>
CC1CN(CCN1)C1=C(F)C(C)=C2C(=O)C(=CN(C3CC3)C2=C1)C(O)=O

> <INCHI_IDENTIFIER>
InChI=1S/C19H22FN3O3/c1-10-8-22(6-5-21-10)15-7-14-16(11(2)17(15)20)18(24)13(19(25)26)9-23(14)12-3-4-12/h7,9-10,12,21H,3-6,8H2,1-2H3,(H,25,26)

> <INCHI_KEY>
AIJTTZAVMXIJGM-UHFFFAOYSA-N

> <FORMULA>
C19H22FN3O3

> <MOLECULAR_WEIGHT>
359.3947

> <EXACT_MASS>
359.16451979

> <JCHEM_ACCEPTOR_COUNT>
6

> <JCHEM_AVERAGE_POLARIZABILITY>
37.692870910728004

> <JCHEM_BIOAVAILABILITY>
1

> <JCHEM_DONOR_COUNT>
2

> <JCHEM_FORMAL_CHARGE>
0

> <JCHEM_GHOSE_FILTER>
1

> <JCHEM_IUPAC>
1-cyclopropyl-6-fluoro-5-methyl-7-(3-methylpiperazin-1-yl)-4-oxo-1,4-dihydroquinoline-3-carboxylic acid

> <ALOGPS_LOGP>
-0.12

> <JCHEM_LOGP>
0.11811200672493903

> <ALOGPS_LOGS>
-2.76

> <JCHEM_MDDR_LIKE_RULE>
0

> <JCHEM_NUMBER_OF_RINGS>
4

> <JCHEM_PHYSIOLOGICAL_CHARGE>
0

> <JCHEM_PKA_STRONGEST_ACIDIC>
5.876593176832228

> <JCHEM_PKA_STRONGEST_BASIC>
8.770720290866418

> <JCHEM_POLAR_SURFACE_AREA>
72.88

> <JCHEM_REFRACTIVITY>
97.39939999999999

> <JCHEM_ROTATABLE_BOND_COUNT>
3

> <JCHEM_RULE_OF_FIVE>
1

> <ALOGPS_SOLUBILITY>
6.32e-01 g/l

> <JCHEM_TRADITIONAL_IUPAC>
grepafloxacin

> <JCHEM_VEBER_RULE>
0

$$$$
6249
  -OEChem-10051719143D

 43 45  0     1  0  0  0  0  0999 V2000
   -0.5402    0.6609    1.0826 S   0  0  0  0  0  0  0  0  0  0  0  0
   -2.1304   -2.1944   -1.8722 O   0  0  0  0  0  0  0  0  0  0  0  0
   -4.7937    1.6026   -0.7951 O   0  0  0  0  0  0  0  0  0  0  0  0
   -4.9959   -0.5119    0.0320 O   0  0  0  0  0  0  0  0  0  0  0  0
    1.8502   -2.0152    1.6262 O   0  0  0  0  0  0  0  0  0  0  0  0
   -2.3674   -0.8786    0.0727 N   0  0  0  0  0  0  0  0  0  0  0  0
    0.6507   -1.7828   -0.3445 N   0  0  0  0  0  0  0  0  0  0  0  0
    4.1890   -2.1792    0.1652 N   0  0  0  0  0  0  0  0  0  0  0  0
   -1.3242   -0.9926    1.0963 C   0  0  1  0  0  0  0  0  0  0  0  0
   -2.1535    1.4644    0.6124 C   0  0  0  0  0  0  0  0  0  0  0  0
   -2.8079    0.4391   -0.3384 C   0  0  2  0  0  0  0  0  0  0  0  0
   -0.6744   -2.0731    0.2212 C   0  0  1  0  0  0  0  0  0  0  0  0
   -1.8408   -1.8263   -0.7564 C   0  0  0  0  0  0  0  0  0  0  0  0
   -2.9419    1.7308    1.9019 C   0  0  0  0  0  0  0  0  0  0  0  0
   -1.8616    2.7834   -0.1053 C   0  0  0  0  0  0  0  0  0  0  0  0
   -4.3033    0.4262   -0.3336 C   0  0  0  0  0  0  0  0  0  0  0  0
    1.8202   -1.7785    0.4196 C   0  0  0  0  0  0  0  0  0  0  0  0
    3.0615   -1.4271   -0.3931 C   0  0  1  0  0  0  0  0  0  0  0  0
    3.3056    0.0677   -0.3871 C   0  0  0  0  0  0  0  0  0  0  0  0
    2.7331    0.8483   -1.3755 C   0  0  0  0  0  0  0  0  0  0  0  0
    4.0955    0.6182    0.6063 C   0  0  0  0  0  0  0  0  0  0  0  0
    2.9578    2.2249   -1.3702 C   0  0  0  0  0  0  0  0  0  0  0  0
    4.3202    1.9949    0.6116 C   0  0  0  0  0  0  0  0  0  0  0  0
    3.7513    2.7983   -0.3766 C   0  0  0  0  0  0  0  0  0  0  0  0
   -1.7123   -1.3276    2.0625 H   0  0  0  0  0  0  0  0  0  0  0  0
   -2.4777    0.5810   -1.3764 H   0  0  0  0  0  0  0  0  0  0  0  0
   -0.7093   -3.0788    0.6571 H   0  0  0  0  0  0  0  0  0  0  0  0
   -3.2038    0.8051    2.4266 H   0  0  0  0  0  0  0  0  0  0  0  0
   -2.3722    2.3598    2.5965 H   0  0  0  0  0  0  0  0  0  0  0  0
   -3.8769    2.2624    1.6928 H   0  0  0  0  0  0  0  0  0  0  0  0
   -1.3127    3.4790    0.5404 H   0  0  0  0  0  0  0  0  0  0  0  0
   -1.2657    2.6302   -1.0127 H   0  0  0  0  0  0  0  0  0  0  0  0
   -2.7881    3.2850   -0.4044 H   0  0  0  0  0  0  0  0  0  0  0  0
    0.7320   -1.5698   -1.3359 H   0  0  0  0  0  0  0  0  0  0  0  0
    2.9294   -1.7709   -1.4268 H   0  0  0  0  0  0  0  0  0  0  0  0
   -5.7745    1.6146   -0.7988 H   0  0  0  0  0  0  0  0  0  0  0  0
    5.0188   -2.0218   -0.4065 H   0  0  0  0  0  0  0  0  0  0  0  0
    3.9951   -3.1784    0.1028 H   0  0  0  0  0  0  0  0  0  0  0  0
    2.1131    0.4121   -2.1531 H   0  0  0  0  0  0  0  0  0  0  0  0
    4.5368    0.0230    1.3997 H   0  0  0  0  0  0  0  0  0  0  0  0
    2.5138    2.8506   -2.1389 H   0  0  0  0  0  0  0  0  0  0  0  0
    4.9343    2.4423    1.3877 H   0  0  0  0  0  0  0  0  0  0  0  0
    3.9248    3.8704   -0.3715 H   0  0  0  0  0  0  0  0  0  0  0  0
  1  9  1  0  0  0  0
  1 10  1  0  0  0  0
  2 13  2  0  0  0  0
  3 16  1  0  0  0  0
  3 36  1  0  0  0  0
  4 16  2  0  0  0  0
  5 17  2  0  0  0  0
  6  9  1  0  0  0  0
  6 11  1  0  0  0  0
  6 13  1  0  0  0  0
  7 12  1  0  0  0  0
  7 17  1  0  0  0  0
  7 34  1  0  0  0  0
  8 18  1  0  0  0  0
  8 37  1  0  0  0  0
  8 38  1  0  0  0  0
  9 12  1  0  0  0  0
  9 25  1  0  0  0  0
 10 11  1  0  0  0  0
 10 14  1  0  0  0  0
 10 15  1  0  0  0  0
 11 16  1  0  0  0  0
 11 26  1  0  0  0  0
 12 13  1  0  0  0  0
 12 27  1  0  0  0  0
 14 28  1  0  0  0  0
 14 29  1  0  0  0  0
 14 30  1  0  0  0  0
 15 31  1  0  0  0  0
 15 32  1  0  0  0  0
 15 33  1  0  0  0  0
 17 18  1  0  0  0  0
 18 19  1  0  0  0  0
 18 35  1  0  0  0  0
 19 20  2  0  0  0  0
 19 21  1  0  0  0  0
 20 22  1  0  0  0  0
 20 39  1  0  0  0  0
 21 23  2  0  0  0  0
 21 40  1  0  0  0  0
 22 24  2  0  0  0  0
 22 41  1  0  0  0  0
 23 24  1  0  0  0  0
 23 42  1  0  0  0  0
 24 43  1  0  0  0  0
M  END
> <DATABASE_ID>
DB00415

> <DATABASE_NAME>
drugbank

> <ORIGINAL_SOURCE>
PUBCHEM

> <ORIGINAL_SOURCE_URL>
https://pubchem.ncbi.nlm.nih.gov/rest/pug/compound/inchikey/AVKUERGKIZMTKX-NJBDSQKTSA-N/SDF?record_type=3d

> <SMILES>
[H][C@]12SC(C)(C)[C@@H](N1C(=O)[C@H]2NC(=O)[C@H](N)C1=CC=CC=C1)C(O)=O

> <INCHI_IDENTIFIER>
InChI=1S/C16H19N3O4S/c1-16(2)11(15(22)23)19-13(21)10(14(19)24-16)18-12(20)9(17)8-6-4-3-5-7-8/h3-7,9-11,14H,17H2,1-2H3,(H,18,20)(H,22,23)/t9-,10-,11+,14-/m1/s1

> <INCHI_KEY>
AVKUERGKIZMTKX-NJBDSQKTSA-N

> <FORMULA>
C16H19N3O4S

> <MOLECULAR_WEIGHT>
349.405

> <EXACT_MASS>
349.109626801

> <JCHEM_ACCEPTOR_COUNT>
5

> <JCHEM_AVERAGE_POLARIZABILITY>
34.541206325512505

> <JCHEM_BIOAVAILABILITY>
1

> <JCHEM_DONOR_COUNT>
3

> <JCHEM_FORMAL_CHARGE>
0

> <JCHEM_GHOSE_FILTER>
0

> <JCHEM_IUPAC>
(2S,5R,6R)-6-[(2R)-2-amino-2-phenylacetamido]-3,3-dimethyl-7-oxo-4-thia-1-azabicyclo[3.2.0]heptane-2-carboxylic acid

> <ALOGPS_LOGP>
0.88

> <JCHEM_LOGP>
-2.0066501687027025

> <ALOGPS_LOGS>
-2.76

> <JCHEM_MDDR_LIKE_RULE>
0

> <JCHEM_NUMBER_OF_RINGS>
3

> <JCHEM_PHYSIOLOGICAL_CHARGE>
0

> <JCHEM_PKA>
11.966024558762253

> <JCHEM_PKA_STRONGEST_ACIDIC>
3.2380534931233718

> <JCHEM_PKA_STRONGEST_BASIC>
7.43836141403785

> <JCHEM_POLAR_SURFACE_AREA>
112.72999999999999

> <JCHEM_REFRACTIVITY>
87.52350000000003

> <JCHEM_ROTATABLE_BOND_COUNT>
4

> <JCHEM_RULE_OF_FIVE>
1

> <ALOGPS_SOLUBILITY>
6.05e-01 g/l

> <JCHEM_TRADITIONAL_IUPAC>
ampicillin

> <JCHEM_VEBER_RULE>
0

$$$$
6869
  -OEChem-10051719143D

 42 44  0     1  0  0  0  0  0999 V2000
   -2.0256   -1.2930   -1.1701 S   0  0  0  0  0  0  0  0  0  0  0  0
   -2.0238    1.9566    1.8051 O   0  0  0  0  0  0  0  0  0  0  0  0
   -5.9785   -0.6601    1.3753 O   0  0  0  0  0  0  0  0  0  0  0  0
   -5.5629    1.3847    0.4576 O   0  0  0  0  0  0  0  0  0  0  0  0
    1.5182    1.3613   -1.8035 O   0  0  0  0  0  0  0  0  0  0  0  0
    3.6405   -0.0589   -0.9402 O   0  0  0  0  0  0  0  0  0  0  0  0
   -3.0144    0.7985    0.0029 N   0  0  0  0  0  0  0  0  0  0  0  0
    0.1548    0.5800   -0.0913 N   0  0  0  0  0  0  0  0  0  0  0  0
   -2.1766    0.5307   -1.1697 C   0  0  1  0  0  0  0  0  0  0  0  0
   -3.7193   -1.4719   -0.4156 C   0  0  0  0  0  0  0  0  0  0  0  0
   -3.8134   -0.2761    0.5564 C   0  0  2  0  0  0  0  0  0  0  0  0
   -1.0592    1.3167   -0.4702 C   0  0  1  0  0  0  0  0  0  0  0  0
   -2.0645    1.5037    0.6837 C   0  0  0  0  0  0  0  0  0  0  0  0
   -4.7481   -1.4497   -1.5542 C   0  0  0  0  0  0  0  0  0  0  0  0
   -3.7928   -2.8048    0.3313 C   0  0  0  0  0  0  0  0  0  0  0  0
   -5.1907    0.2645    0.7736 C   0  0  0  0  0  0  0  0  0  0  0  0
    1.3517    0.6699   -0.8023 C   0  0  0  0  0  0  0  0  0  0  0  0
    2.4443   -0.1875   -0.2015 C   0  0  0  0  0  0  0  0  0  0  0  0
    4.8218   -0.2097   -0.2529 C   0  0  0  0  0  0  0  0  0  0  0  0
    4.8659   -1.0432    0.8561 C   0  0  0  0  0  0  0  0  0  0  0  0
    5.9520    0.4744   -0.6785 C   0  0  0  0  0  0  0  0  0  0  0  0
    6.0642   -1.1954    1.5537 C   0  0  0  0  0  0  0  0  0  0  0  0
    7.1503    0.3220    0.0192 C   0  0  0  0  0  0  0  0  0  0  0  0
    7.2063   -0.5129    1.1352 C   0  0  0  0  0  0  0  0  0  0  0  0
   -2.5744    0.9756   -2.0864 H   0  0  0  0  0  0  0  0  0  0  0  0
   -3.3905   -0.5196    1.5403 H   0  0  0  0  0  0  0  0  0  0  0  0
   -0.8245    2.2727   -0.9548 H   0  0  0  0  0  0  0  0  0  0  0  0
   -4.5532   -2.2434   -2.2854 H   0  0  0  0  0  0  0  0  0  0  0  0
   -5.7628   -1.6153   -1.1755 H   0  0  0  0  0  0  0  0  0  0  0  0
   -4.7527   -0.4942   -2.0907 H   0  0  0  0  0  0  0  0  0  0  0  0
   -3.6317   -3.6533   -0.3443 H   0  0  0  0  0  0  0  0  0  0  0  0
   -3.0436   -2.8667    1.1292 H   0  0  0  0  0  0  0  0  0  0  0  0
   -4.7751   -2.9451    0.7949 H   0  0  0  0  0  0  0  0  0  0  0  0
    0.1335   -0.0335    0.7203 H   0  0  0  0  0  0  0  0  0  0  0  0
   -6.8879   -0.3245    1.5259 H   0  0  0  0  0  0  0  0  0  0  0  0
    2.5611    0.1528    0.8361 H   0  0  0  0  0  0  0  0  0  0  0  0
    2.1133   -1.2322   -0.2182 H   0  0  0  0  0  0  0  0  0  0  0  0
    4.0066   -1.6127    1.1962 H   0  0  0  0  0  0  0  0  0  0  0  0
    5.9115    1.1255   -1.5469 H   0  0  0  0  0  0  0  0  0  0  0  0
    6.1101   -1.8503    2.4189 H   0  0  0  0  0  0  0  0  0  0  0  0
    8.0397    0.8532   -0.3068 H   0  0  0  0  0  0  0  0  0  0  0  0
    8.1397   -0.6326    1.6774 H   0  0  0  0  0  0  0  0  0  0  0  0
  1  9  1  0  0  0  0
  1 10  1  0  0  0  0
  2 13  2  0  0  0  0
  3 16  1  0  0  0  0
  3 35  1  0  0  0  0
  4 16  2  0  0  0  0
  5 17  2  0  0  0  0
  6 18  1  0  0  0  0
  6 19  1  0  0  0  0
  7  9  1  0  0  0  0
  7 11  1  0  0  0  0
  7 13  1  0  0  0  0
  8 12  1  0  0  0  0
  8 17  1  0  0  0  0
  8 34  1  0  0  0  0
  9 12  1  0  0  0  0
  9 25  1  0  0  0  0
 10 11  1  0  0  0  0
 10 14  1  0  0  0  0
 10 15  1  0  0  0  0
 11 16  1  0  0  0  0
 11 26  1  0  0  0  0
 12 13  1  0  0  0  0
 12 27  1  0  0  0  0
 14 28  1  0  0  0  0
 14 29  1  0  0  0  0
 14 30  1  0  0  0  0
 15 31  1  0  0  0  0
 15 32  1  0  0  0  0
 15 33  1  0  0  0  0
 17 18  1  0  0  0  0
 18 36  1  0  0  0  0
 18 37  1  0  0  0  0
 19 20  2  0  0  0  0
 19 21  1  0  0  0  0
 20 22  1  0  0  0  0
 20 38  1  0  0  0  0
 21 23  2  0  0  0  0
 21 39  1  0  0  0  0
 22 24  2  0  0  0  0
 22 40  1  0  0  0  0
 23 24  1  0  0  0  0
 23 41  1  0  0  0  0
 24 42  1  0  0  0  0
M  END
> <DATABASE_ID>
DB00417

> <DATABASE_NAME>
drugbank

> <ORIGINAL_SOURCE>
PUBCHEM

> <ORIGINAL_SOURCE_URL>
https://pubchem.ncbi.nlm.nih.gov/rest/pug/compound/inchikey/BPLBGHOLXOTWMN-MBNYWOFBSA-N/SDF?record_type=3d

> <SMILES>
[H][C@]12SC(C)(C)[C@@H](N1C(=O)[C@H]2NC(=O)COC1=CC=CC=C1)C(O)=O

> <INCHI_IDENTIFIER>
InChI=1S/C16H18N2O5S/c1-16(2)12(15(21)22)18-13(20)11(14(18)24-16)17-10(19)8-23-9-6-4-3-5-7-9/h3-7,11-12,14H,8H2,1-2H3,(H,17,19)(H,21,22)/t11-,12+,14-/m1/s1

> <INCHI_KEY>
BPLBGHOLXOTWMN-MBNYWOFBSA-N

> <FORMULA>
C16H18N2O5S

> <MOLECULAR_WEIGHT>
350.39

> <EXACT_MASS>
350.093642386

> <JCHEM_ACCEPTOR_COUNT>
5

> <JCHEM_AVERAGE_POLARIZABILITY>
34.37043845426734

> <JCHEM_BIOAVAILABILITY>
1

> <JCHEM_DONOR_COUNT>
2

> <JCHEM_FORMAL_CHARGE>
0

> <JCHEM_GHOSE_FILTER>
1

> <JCHEM_IUPAC>
(2S,5R,6R)-3,3-dimethyl-7-oxo-6-(2-phenoxyacetamido)-4-thia-1-azabicyclo[3.2.0]heptane-2-carboxylic acid

> <ALOGPS_LOGP>
1.78

> <JCHEM_LOGP>
0.7632417063333333

> <ALOGPS_LOGS>
-2.89

> <JCHEM_MDDR_LIKE_RULE>
0

> <JCHEM_NUMBER_OF_RINGS>
3

> <JCHEM_PHYSIOLOGICAL_CHARGE>
-1

> <JCHEM_PKA>
11.741506321839815

> <JCHEM_PKA_STRONGEST_ACIDIC>
3.390268054489988

> <JCHEM_PKA_STRONGEST_BASIC>
-4.869023346985543

> <JCHEM_POLAR_SURFACE_AREA>
95.94

> <JCHEM_REFRACTIVITY>
85.76800000000003

> <JCHEM_ROTATABLE_BOND_COUNT>
5

> <JCHEM_RULE_OF_FIVE>
1

> <ALOGPS_SOLUBILITY>
4.54e-01 g/l

> <JCHEM_TRADITIONAL_IUPAC>
penicillin V

> <JCHEM_VEBER_RULE>
0

$$$$
3324
  -OEChem-10051719143D

 42 43  0     0  0  0  0  0  0999 V2000
    3.6199    1.5080   -0.0625 O   0  0  0  0  0  0  0  0  0  0  0  0
    1.5277   -2.2130    0.0950 O   0  0  0  0  0  0  0  0  0  0  0  0
    5.2684    1.0234   -1.6069 O   0  0  0  0  0  0  0  0  0  0  0  0
    1.3900   -4.2366    1.2007 O   0  0  0  0  0  0  0  0  0  0  0  0
   -1.5083    1.2507    0.9952 N   0  0  0  0  0  0  0  0  0  0  0  0
   -2.9882    2.8415    0.5659 N   0  0  0  0  0  0  0  0  0  0  0  0
   -2.5449   -0.6281   -0.1367 N   0  0  0  0  0  0  0  0  0  0  0  0
   -4.6446    0.0376   -1.1877 N   0  0  0  0  0  0  0  0  0  0  0  0
   -3.8491   -2.1611   -1.3302 N   0  0  0  0  0  0  0  0  0  0  0  0
    2.1619   -0.0710    1.0622 C   0  0  0  0  0  0  0  0  0  0  0  0
    0.8945    0.6695    0.5711 C   0  0  0  0  0  0  0  0  0  0  0  0
   -0.3066    0.6147    1.5228 C   0  0  0  0  0  0  0  0  0  0  0  0
    3.3071    0.1254    0.0534 C   0  0  0  0  0  0  0  0  0  0  0  0
    1.9265   -1.5697    1.2975 C   0  0  0  0  0  0  0  0  0  0  0  0
   -2.4772    0.6519    0.2585 C   0  0  0  0  0  0  0  0  0  0  0  0
   -1.8472    2.5583    1.1588 C   0  0  0  0  0  0  0  0  0  0  0  0
   -3.3930    1.6591   -0.0008 C   0  0  0  0  0  0  0  0  0  0  0  0
   -4.5106    1.3142   -0.7543 C   0  0  0  0  0  0  0  0  0  0  0  0
    4.6273    1.8187   -0.9333 C   0  0  0  0  0  0  0  0  0  0  0  0
    1.2898   -3.5568    0.1884 C   0  0  0  0  0  0  0  0  0  0  0  0
   -3.6678   -0.8412   -0.8570 C   0  0  0  0  0  0  0  0  0  0  0  0
    4.8449    3.3015   -0.9522 C   0  0  0  0  0  0  0  0  0  0  0  0
    0.8796   -4.0969   -1.1481 C   0  0  0  0  0  0  0  0  0  0  0  0
    2.4609    0.3875    2.0140 H   0  0  0  0  0  0  0  0  0  0  0  0
    0.5951    0.2664   -0.4056 H   0  0  0  0  0  0  0  0  0  0  0  0
    1.1354    1.7256    0.3933 H   0  0  0  0  0  0  0  0  0  0  0  0
   -0.5838   -0.4176    1.7591 H   0  0  0  0  0  0  0  0  0  0  0  0
   -0.0659    1.1117    2.4700 H   0  0  0  0  0  0  0  0  0  0  0  0
    4.1987   -0.4116    0.3996 H   0  0  0  0  0  0  0  0  0  0  0  0
    3.0220   -0.2638   -0.9317 H   0  0  0  0  0  0  0  0  0  0  0  0
    1.1652   -1.7229    2.0700 H   0  0  0  0  0  0  0  0  0  0  0  0
    2.8570   -2.0285    1.6553 H   0  0  0  0  0  0  0  0  0  0  0  0
   -1.2360    3.2592    1.7112 H   0  0  0  0  0  0  0  0  0  0  0  0
   -5.2957    2.0086   -1.0235 H   0  0  0  0  0  0  0  0  0  0  0  0
    5.1351    3.6459    0.0436 H   0  0  0  0  0  0  0  0  0  0  0  0
    3.9334    3.8052   -1.2837 H   0  0  0  0  0  0  0  0  0  0  0  0
    5.6501    3.5412   -1.6525 H   0  0  0  0  0  0  0  0  0  0  0  0
    1.6794   -3.9339   -1.8747 H   0  0  0  0  0  0  0  0  0  0  0  0
   -0.0433   -3.6114   -1.4754 H   0  0  0  0  0  0  0  0  0  0  0  0
    0.6978   -5.1722   -1.0649 H   0  0  0  0  0  0  0  0  0  0  0  0
   -3.1546   -2.8640   -1.1183 H   0  0  0  0  0  0  0  0  0  0  0  0
   -4.6698   -2.3846   -1.8759 H   0  0  0  0  0  0  0  0  0  0  0  0
  1 13  1  0  0  0  0
  1 19  1  0  0  0  0
  2 14  1  0  0  0  0
  2 20  1  0  0  0  0
  3 19  2  0  0  0  0
  4 20  2  0  0  0  0
  5 12  1  0  0  0  0
  5 15  1  0  0  0  0
  5 16  1  0  0  0  0
  6 16  2  0  0  0  0
  6 17  1  0  0  0  0
  7 15  2  0  0  0  0
  7 21  1  0  0  0  0
  8 18  1  0  0  0  0
  8 21  2  0  0  0  0
  9 21  1  0  0  0  0
  9 41  1  0  0  0  0
  9 42  1  0  0  0  0
 10 11  1  0  0  0  0
 10 13  1  0  0  0  0
 10 14  1  0  0  0  0
 10 24  1  0  0  0  0
 11 12  1  0  0  0  0
 11 25  1  0  0  0  0
 11 26  1  0  0  0  0
 12 27  1  0  0  0  0
 12 28  1  0  0  0  0
 13 29  1  0  0  0  0
 13 30  1  0  0  0  0
 14 31  1  0  0  0  0
 14 32  1  0  0  0  0
 15 17  1  0  0  0  0
 16 33  1  0  0  0  0
 17 18  2  0  0  0  0
 18 34  1  0  0  0  0
 19 22  1  0  0  0  0
 20 23  1  0  0  0  0
 22 35  1  0  0  0  0
 22 36  1  0  0  0  0
 22 37  1  0  0  0  0
 23 38  1  0  0  0  0
 23 39  1  0  0  0  0
 23 40  1  0  0  0  0
M  END
> <DATABASE_ID>
DB00426

> <DATABASE_NAME>
drugbank

> <ORIGINAL_SOURCE>
PUBCHEM

> <ORIGINAL_SOURCE_URL>
https://pubchem.ncbi.nlm.nih.gov/rest/pug/compound/inchikey/GGXKWVWZWMLJEH-UHFFFAOYSA-N/SDF?record_type=3d

> <SMILES>
CC(=O)OCC(CCN1C=NC2=CN=C(N)N=C12)COC(C)=O

> <INCHI_IDENTIFIER>
InChI=1S/C14H19N5O4/c1-9(20)22-6-11(7-23-10(2)21)3-4-19-8-17-12-5-16-14(15)18-13(12)19/h5,8,11H,3-4,6-7H2,1-2H3,(H2,15,16,18)

> <INCHI_KEY>
GGXKWVWZWMLJEH-UHFFFAOYSA-N

> <FORMULA>
C14H19N5O4

> <MOLECULAR_WEIGHT>
321.3318

> <EXACT_MASS>
321.143704121

> <JCHEM_ACCEPTOR_COUNT>
6

> <JCHEM_AVERAGE_POLARIZABILITY>
32.82547944138288

> <JCHEM_BIOAVAILABILITY>
1

> <JCHEM_DONOR_COUNT>
1

> <JCHEM_FORMAL_CHARGE>
0

> <JCHEM_GHOSE_FILTER>
0

> <JCHEM_IUPAC>
2-[(acetyloxy)methyl]-4-(2-amino-9H-purin-9-yl)butyl acetate

> <ALOGPS_LOGP>
0.13

> <JCHEM_LOGP>
-0.4836860169999998

> <ALOGPS_LOGS>
-2.39

> <JCHEM_MDDR_LIKE_RULE>
0

> <JCHEM_NUMBER_OF_RINGS>
2

> <JCHEM_PHYSIOLOGICAL_CHARGE>
0

> <JCHEM_PKA_STRONGEST_ACIDIC>
16.700940442073367

> <JCHEM_PKA_STRONGEST_BASIC>
5.048475789934001

> <JCHEM_POLAR_SURFACE_AREA>
122.22

> <JCHEM_REFRACTIVITY>
81.53530000000002

> <JCHEM_ROTATABLE_BOND_COUNT>
9

> <JCHEM_RULE_OF_FIVE>
1

> <ALOGPS_SOLUBILITY>
1.32e+00 g/l

> <JCHEM_TRADITIONAL_IUPAC>
famciclovir

> <JCHEM_VEBER_RULE>
0

$$$$
6256
  -OEChem-10051719153D

 31 32  0     1  0  0  0  0  0999 V2000
   -1.7980    2.5059   -0.1315 F   0  0  0  0  0  0  0  0  0  0  0  0
   -3.3132    1.4566   -1.2959 F   0  0  0  0  0  0  0  0  0  0  0  0
   -3.4855    1.5611    0.8746 F   0  0  0  0  0  0  0  0  0  0  0  0
    2.0134    0.2723    1.0117 O   0  0  0  0  0  0  0  0  0  0  0  0
    4.6217   -0.7561   -0.2179 O   0  0  0  0  0  0  0  0  0  0  0  0
    1.9123    3.0581    0.7242 O   0  0  0  0  0  0  0  0  0  0  0  0
    0.2161   -3.3724    0.3045 O   0  0  0  0  0  0  0  0  0  0  0  0
   -3.7940   -1.1605   -0.1134 O   0  0  0  0  0  0  0  0  0  0  0  0
    0.2561   -1.0406    0.1976 N   0  0  0  0  0  0  0  0  0  0  0  0
   -1.7768   -2.2566    0.0954 N   0  0  0  0  0  0  0  0  0  0  0  0
    1.6815   -0.9309    0.3043 C   0  0  1  0  0  0  0  0  0  0  0  0
    3.5607    0.0224   -0.7672 C   0  0  1  0  0  0  0  0  0  0  0  0
    2.3707   -0.8655   -1.0489 C   0  0  0  0  0  0  0  0  0  0  0  0
    3.0293    0.9881    0.2829 C   0  0  1  0  0  0  0  0  0  0  0  0
    2.3847    2.2275   -0.3240 C   0  0  0  0  0  0  0  0  0  0  0  0
   -0.4911    0.1247    0.0838 C   0  0  0  0  0  0  0  0  0  0  0  0
   -0.3825   -2.2992    0.2067 C   0  0  0  0  0  0  0  0  0  0  0  0
   -1.8251    0.1620   -0.0227 C   0  0  0  0  0  0  0  0  0  0  0  0
   -2.5700   -1.1251   -0.0199 C   0  0  0  0  0  0  0  0  0  0  0  0
   -2.6103    1.4283   -0.1442 C   0  0  0  0  0  0  0  0  0  0  0  0
    2.0760   -1.7710    0.8881 H   0  0  0  0  0  0  0  0  0  0  0  0
    3.9479    0.5249   -1.6585 H   0  0  0  0  0  0  0  0  0  0  0  0
    1.7255   -0.3909   -1.7981 H   0  0  0  0  0  0  0  0  0  0  0  0
    2.6327   -1.8634   -1.4146 H   0  0  0  0  0  0  0  0  0  0  0  0
    3.7975    1.2787    1.0080 H   0  0  0  0  0  0  0  0  0  0  0  0
    1.5551    1.9955   -0.9955 H   0  0  0  0  0  0  0  0  0  0  0  0
    3.1296    2.7941   -0.8929 H   0  0  0  0  0  0  0  0  0  0  0  0
    0.0443    1.0593    0.0906 H   0  0  0  0  0  0  0  0  0  0  0  0
    4.8929   -1.3976   -0.8965 H   0  0  0  0  0  0  0  0  0  0  0  0
   -2.2585   -3.1514    0.1000 H   0  0  0  0  0  0  0  0  0  0  0  0
    1.5202    3.8459    0.3106 H   0  0  0  0  0  0  0  0  0  0  0  0
  1 20  1  0  0  0  0
  2 20  1  0  0  0  0
  3 20  1  0  0  0  0
  4 11  1  0  0  0  0
  4 14  1  0  0  0  0
  5 12  1  0  0  0  0
  5 29  1  0  0  0  0
  6 15  1  0  0  0  0
  6 31  1  0  0  0  0
  7 17  2  0  0  0  0
  8 19  2  0  0  0  0
  9 11  1  0  0  0  0
  9 16  1  0  0  0  0
  9 17  1  0  0  0  0
 10 17  1  0  0  0  0
 10 19  1  0  0  0  0
 10 30  1  0  0  0  0
 11 13  1  0  0  0  0
 11 21  1  0  0  0  0
 12 13  1  0  0  0  0
 12 14  1  0  0  0  0
 12 22  1  0  0  0  0
 13 23  1  0  0  0  0
 13 24  1  0  0  0  0
 14 15  1  0  0  0  0
 14 25  1  0  0  0  0
 15 26  1  0  0  0  0
 15 27  1  0  0  0  0
 16 18  2  0  0  0  0
 16 28  1  0  0  0  0
 18 19  1  0  0  0  0
 18 20  1  0  0  0  0
M  END
> <DATABASE_ID>
DB00432

> <DATABASE_NAME>
drugbank

> <ORIGINAL_SOURCE>
PUBCHEM

> <ORIGINAL_SOURCE_URL>
https://pubchem.ncbi.nlm.nih.gov/rest/pug/compound/inchikey/VSQQQLOSPVPRAZ-RRKCRQDMSA-N/SDF?record_type=3d

> <SMILES>
OC[C@H]1O[C@H](C[C@@H]1O)N1C=C(C(=O)NC1=O)C(F)(F)F

> <INCHI_IDENTIFIER>
InChI=1S/C10H11F3N2O5/c11-10(12,13)4-2-15(9(19)14-8(4)18)7-1-5(17)6(3-16)20-7/h2,5-7,16-17H,1,3H2,(H,14,18,19)/t5-,6+,7+/m0/s1

> <INCHI_KEY>
VSQQQLOSPVPRAZ-RRKCRQDMSA-N

> <FORMULA>
C10H11F3N2O5

> <MOLECULAR_WEIGHT>
296.1999

> <EXACT_MASS>
296.062006087

> <JCHEM_ACCEPTOR_COUNT>
5

> <JCHEM_AVERAGE_POLARIZABILITY>
23.074149718395166

> <JCHEM_BIOAVAILABILITY>
1

> <JCHEM_DONOR_COUNT>
3

> <JCHEM_FORMAL_CHARGE>
0

> <JCHEM_GHOSE_FILTER>
0

> <JCHEM_IUPAC>
1-[(2R,4S,5R)-4-hydroxy-5-(hydroxymethyl)oxolan-2-yl]-5-(trifluoromethyl)-1,2,3,4-tetrahydropyrimidine-2,4-dione

> <ALOGPS_LOGP>
-0.45

> <JCHEM_LOGP>
-0.7546264969999998

> <ALOGPS_LOGS>
-1.65

> <JCHEM_MDDR_LIKE_RULE>
0

> <JCHEM_NUMBER_OF_RINGS>
2

> <JCHEM_PHYSIOLOGICAL_CHARGE>
0

> <JCHEM_PKA>
13.907878998150686

> <JCHEM_PKA_STRONGEST_ACIDIC>
7.59857689451916

> <JCHEM_PKA_STRONGEST_BASIC>
-2.9780835895525817

> <JCHEM_POLAR_SURFACE_AREA>
99.09999999999998

> <JCHEM_REFRACTIVITY>
56.3445

> <JCHEM_ROTATABLE_BOND_COUNT>
3

> <JCHEM_RULE_OF_FIVE>
1

> <ALOGPS_SOLUBILITY>
6.69e+00 g/l

> <JCHEM_TRADITIONAL_IUPAC>
trifluridine

> <JCHEM_VEBER_RULE>
0

$$$$
5959
  -OEChem-10051719153D

 32 32  0     1  0  0  0  0  0999 V2000
   -5.6487    1.8392    0.5707 Cl  0  0  0  0  0  0  0  0  0  0  0  0
   -6.1225   -0.7375   -0.7207 Cl  0  0  0  0  0  0  0  0  0  0  0  0
   -0.6465    0.9864    1.8314 O   0  0  0  0  0  0  0  0  0  0  0  0
   -1.2419   -2.7009   -0.3042 O   0  0  0  0  0  0  0  0  0  0  0  0
   -3.5739    0.8392   -1.5011 O   0  0  0  0  0  0  0  0  0  0  0  0
    5.9774   -0.5362   -0.0210 O   0  5  0  0  0  0  0  0  0  0  0  0
    5.4962    1.2406   -1.2171 O   0  0  0  0  0  0  0  0  0  0  0  0
   -2.6655   -0.2485    0.3337 N   0  0  0  0  0  0  0  0  0  0  0  0
    5.1525    0.3025   -0.4580 N   0  3  0  0  0  0  0  0  0  0  0  0
   -1.2974   -0.2614   -0.1484 C   0  0  1  0  0  0  0  0  0  0  0  0
   -0.3259   -0.1677    1.0478 C   0  0  1  0  0  0  0  0  0  0  0  0
    1.1271   -0.0428    0.6493 C   0  0  0  0  0  0  0  0  0  0  0  0
   -1.0827   -1.4926   -1.0366 C   0  0  0  0  0  0  0  0  0  0  0  0
    2.0423   -0.9644    1.1287 C   0  0  0  0  0  0  0  0  0  0  0  0
    1.5126    0.9908   -0.1878 C   0  0  0  0  0  0  0  0  0  0  0  0
   -3.6981    0.3097   -0.3977 C   0  0  0  0  0  0  0  0  0  0  0  0
    3.3828   -0.8493    0.7604 C   0  0  0  0  0  0  0  0  0  0  0  0
    2.8530    1.1061   -0.5562 C   0  0  0  0  0  0  0  0  0  0  0  0
    3.7882    0.1858   -0.0822 C   0  0  0  0  0  0  0  0  0  0  0  0
   -5.0290    0.2009    0.3090 C   0  0  0  0  0  0  0  0  0  0  0  0
   -1.1860    0.6296   -0.7784 H   0  0  0  0  0  0  0  0  0  0  0  0
   -0.4648   -1.0347    1.7060 H   0  0  0  0  0  0  0  0  0  0  0  0
   -0.0800   -1.4876   -1.4756 H   0  0  0  0  0  0  0  0  0  0  0  0
   -1.8072   -1.5032   -1.8586 H   0  0  0  0  0  0  0  0  0  0  0  0
   -2.8695   -0.7328    1.2030 H   0  0  0  0  0  0  0  0  0  0  0  0
    1.7383   -1.7751    1.7844 H   0  0  0  0  0  0  0  0  0  0  0  0
    0.8019    1.7242   -0.5564 H   0  0  0  0  0  0  0  0  0  0  0  0
   -1.5825    0.9159    2.0855 H   0  0  0  0  0  0  0  0  0  0  0  0
    4.0832   -1.5844    1.1486 H   0  0  0  0  0  0  0  0  0  0  0  0
    3.1331    1.9267   -1.2118 H   0  0  0  0  0  0  0  0  0  0  0  0
   -1.0910   -3.4334   -0.9256 H   0  0  0  0  0  0  0  0  0  0  0  0
   -4.9533   -0.2982    1.2783 H   0  0  0  0  0  0  0  0  0  0  0  0
  1 20  1  0  0  0  0
  2 20  1  0  0  0  0
  3 11  1  0  0  0  0
  3 28  1  0  0  0  0
  4 13  1  0  0  0  0
  4 31  1  0  0  0  0
  5 16  2  0  0  0  0
  6  9  1  0  0  0  0
  7  9  2  0  0  0  0
  8 10  1  0  0  0  0
  8 16  1  0  0  0  0
  8 25  1  0  0  0  0
  9 19  1  0  0  0  0
 10 11  1  0  0  0  0
 10 13  1  0  0  0  0
 10 21  1  0  0  0  0
 11 12  1  0  0  0  0
 11 22  1  0  0  0  0
 12 14  2  0  0  0  0
 12 15  1  0  0  0  0
 13 23  1  0  0  0  0
 13 24  1  0  0  0  0
 14 17  1  0  0  0  0
 14 26  1  0  0  0  0
 15 18  2  0  0  0  0
 15 27  1  0  0  0  0
 16 20  1  0  0  0  0
 17 19  2  0  0  0  0
 17 29  1  0  0  0  0
 18 19  1  0  0  0  0
 18 30  1  0  0  0  0
 20 32  1  0  0  0  0
M  CHG  2   6  -1   9   1
M  END
> <DATABASE_ID>
DB00446

> <DATABASE_NAME>
drugbank

> <ORIGINAL_SOURCE>
PUBCHEM

> <ORIGINAL_SOURCE_URL>
https://pubchem.ncbi.nlm.nih.gov/rest/pug/compound/inchikey/WIIZWVCIJKGZOK-RKDXNWHRSA-N/SDF?record_type=3d

> <SMILES>
OC[C@@H](NC(=O)C(Cl)Cl)[C@H](O)C1=CC=C(C=C1)[N+]([O-])=O

> <INCHI_IDENTIFIER>
InChI=1S/C11H12Cl2N2O5/c12-10(13)11(18)14-8(5-16)9(17)6-1-3-7(4-2-6)15(19)20/h1-4,8-10,16-17H,5H2,(H,14,18)/t8-,9-/m1/s1

> <INCHI_KEY>
WIIZWVCIJKGZOK-RKDXNWHRSA-N

> <FORMULA>
C11H12Cl2N2O5

> <MOLECULAR_WEIGHT>
323.129

> <EXACT_MASS>
322.012326918

> <JCHEM_ACCEPTOR_COUNT>
5

> <JCHEM_AVERAGE_POLARIZABILITY>
28.083065806597737

> <JCHEM_BIOAVAILABILITY>
1

> <JCHEM_DONOR_COUNT>
3

> <JCHEM_FORMAL_CHARGE>
0

> <JCHEM_GHOSE_FILTER>
1

> <JCHEM_IUPAC>
2,2-dichloro-N-[(1R,2R)-1,3-dihydroxy-1-(4-nitrophenyl)propan-2-yl]acetamide

> <ALOGPS_LOGP>
1.15

> <JCHEM_LOGP>
0.8787034880000002

> <ALOGPS_LOGS>
-2.85

> <JCHEM_MDDR_LIKE_RULE>
0

> <JCHEM_NUMBER_OF_RINGS>
1

> <JCHEM_PHYSIOLOGICAL_CHARGE>
0

> <JCHEM_PKA>
13.587750033412025

> <JCHEM_PKA_STRONGEST_ACIDIC>
7.494317415220007

> <JCHEM_PKA_STRONGEST_BASIC>
-2.79485022158514

> <JCHEM_POLAR_SURFACE_AREA>
115.37999999999997

> <JCHEM_REFRACTIVITY>
73.2007

> <JCHEM_ROTATABLE_BOND_COUNT>
6

> <JCHEM_RULE_OF_FIVE>
1

> <ALOGPS_SOLUBILITY>
4.61e-01 g/l

> <JCHEM_TRADITIONAL_IUPAC>
chloramphenicol

> <JCHEM_VEBER_RULE>
0

$$$$
8378
  -OEChem-03052013533D

 88 91  0     1  0  0  0  0  0999 V2000
    0.6873   -1.6258   -0.1083 O   0  0  0  0  0  0  0  0  0  0  0  0
    3.0909   -0.2523   -0.7640 O   0  0  0  0  0  0  0  0  0  0  0  0
    0.0292   -1.6365   -2.3674 O   0  0  0  0  0  0  0  0  0  0  0  0
   -3.2602   -0.4652   -1.5445 O   0  0  0  0  0  0  0  0  0  0  0  0
    1.1014   -4.4369    0.4722 O   0  0  0  0  0  0  0  0  0  0  0  0
    3.4890    1.5281    0.7137 O   0  0  0  0  0  0  0  0  0  0  0  0
   -3.4599    0.6107    0.5379 O   0  0  0  0  0  0  0  0  0  0  0  0
   -2.3961   -3.0607   -1.3061 O   0  0  0  0  0  0  0  0  0  0  0  0
    1.0095    3.5089   -0.9714 O   0  0  0  0  0  0  0  0  0  0  0  0
    4.4798    4.2029   -0.2159 O   0  0  0  0  0  0  0  0  0  0  0  0
   -6.3329   -1.3596    1.2973 O   0  0  0  0  0  0  0  0  0  0  0  0
    0.0102    0.2805   -4.4365 O   0  0  0  0  0  0  0  0  0  0  0  0
   -5.7796    2.2473    1.2883 O   0  0  0  0  0  0  0  0  0  0  0  0
    5.2881   -0.7104    1.0774 N   0  0  0  0  0  0  0  0  0  0  0  0
    3.2338   -4.9543    2.3523 N   0  0  0  0  0  0  0  0  0  0  0  0
    4.1577    1.9688   -2.1306 N   0  0  0  0  0  0  0  0  0  0  0  0
   -5.6467    1.0334   -1.4125 N   0  0  0  0  0  0  0  0  0  0  0  0
    1.5327    4.0299    2.6444 N   0  0  0  0  0  0  0  0  0  0  0  0
   -1.9271    1.3555    2.7548 N   0  0  0  0  0  0  0  0  0  0  0  0
    1.9718   -2.2525   -0.0389 C   0  0  1  0  0  0  0  0  0  0  0  0
    2.9937   -1.1711    0.3282 C   0  0  1  0  0  0  0  0  0  0  0  0
    4.3782   -1.7641    0.6209 C   0  0  2  0  0  0  0  0  0  0  0  0
    1.9186   -3.3850    0.9930 C   0  0  2  0  0  0  0  0  0  0  0  0
    3.3128   -3.9582    1.2801 C   0  0  1  0  0  0  0  0  0  0  0  0
    4.2970   -2.8585    1.6885 C   0  0  0  0  0  0  0  0  0  0  0  0
   -0.1409   -2.2571   -1.0775 C   0  0  2  0  0  0  0  0  0  0  0  0
   -1.8846   -0.7087   -1.3418 C   0  0  1  0  0  0  0  0  0  0  0  0
   -1.5994   -2.0499   -0.6965 C   0  0  1  0  0  0  0  0  0  0  0  0
   -1.1281   -0.8314   -2.6544 C   0  0  1  0  0  0  0  0  0  0  0  0
    2.6899    1.0603   -0.3715 C   0  0  1  0  0  0  0  0  0  0  0  0
    2.7984    2.0021   -1.5801 C   0  0  1  0  0  0  0  0  0  0  0  0
    2.4208    3.4350   -1.1735 C   0  0  2  0  0  0  0  0  0  0  0  0
   -3.9780   -0.4126   -0.3135 C   0  0  1  0  0  0  0  0  0  0  0  0
    3.1240    3.8868    0.1121 C   0  0  1  0  0  0  0  0  0  0  0  0
    3.1272    2.8187    1.2200 C   0  0  1  0  0  0  0  0  0  0  0  0
   -5.4706   -0.1762   -0.6022 C   0  0  1  0  0  0  0  0  0  0  0  0
   -6.2554   -0.0568    0.7147 C   0  0  2  0  0  0  0  0  0  0  0  0
   -0.6920    0.5063   -3.2252 C   0  0  0  0  0  0  0  0  0  0  0  0
   -5.5837    0.8999    1.7109 C   0  0  1  0  0  0  0  0  0  0  0  0
   -4.0780    0.6107    1.8309 C   0  0  2  0  0  0  0  0  0  0  0  0
    1.8228    2.7518    2.0122 C   0  0  0  0  0  0  0  0  0  0  0  0
   -3.3517    1.6462    2.6825 C   0  0  0  0  0  0  0  0  0  0  0  0
    2.2340   -2.6464   -1.0317 H   0  0  0  0  0  0  0  0  0  0  0  0
    2.6194   -0.6688    1.2334 H   0  0  0  0  0  0  0  0  0  0  0  0
    4.7947   -2.1829   -0.3041 H   0  0  0  0  0  0  0  0  0  0  0  0
    1.4364   -3.0302    1.9124 H   0  0  0  0  0  0  0  0  0  0  0  0
    3.6915   -4.4678    0.3847 H   0  0  0  0  0  0  0  0  0  0  0  0
    5.2928   -3.2934    1.8487 H   0  0  0  0  0  0  0  0  0  0  0  0
    3.9871   -2.4200    2.6480 H   0  0  0  0  0  0  0  0  0  0  0  0
    0.0745   -3.3183   -1.2132 H   0  0  0  0  0  0  0  0  0  0  0  0
   -1.4361    0.0965   -0.7439 H   0  0  0  0  0  0  0  0  0  0  0  0
   -1.7714   -2.0623    0.3840 H   0  0  0  0  0  0  0  0  0  0  0  0
   -1.7161   -1.3701   -3.4084 H   0  0  0  0  0  0  0  0  0  0  0  0
    1.6400    0.9977   -0.0619 H   0  0  0  0  0  0  0  0  0  0  0  0
    2.1273    1.6406   -2.3659 H   0  0  0  0  0  0  0  0  0  0  0  0
    2.6602    4.1297   -1.9886 H   0  0  0  0  0  0  0  0  0  0  0  0
   -3.8872   -1.3805    0.1936 H   0  0  0  0  0  0  0  0  0  0  0  0
    5.3758    0.0019    0.3537 H   0  0  0  0  0  0  0  0  0  0  0  0
    6.2204   -1.0983    1.2149 H   0  0  0  0  0  0  0  0  0  0  0  0
    2.6719    4.8192    0.4669 H   0  0  0  0  0  0  0  0  0  0  0  0
    3.9279    3.0661    1.9297 H   0  0  0  0  0  0  0  0  0  0  0  0
    2.6099   -5.7093    2.0703 H   0  0  0  0  0  0  0  0  0  0  0  0
    4.1503   -5.3760    2.4969 H   0  0  0  0  0  0  0  0  0  0  0  0
   -5.8463   -1.0246   -1.1879 H   0  0  0  0  0  0  0  0  0  0  0  0
   -7.2833    0.2638    0.5054 H   0  0  0  0  0  0  0  0  0  0  0  0
    1.5517   -4.8120   -0.3039 H   0  0  0  0  0  0  0  0  0  0  0  0
   -0.0207    1.0220   -2.5349 H   0  0  0  0  0  0  0  0  0  0  0  0
   -1.5561    1.1452   -3.4323 H   0  0  0  0  0  0  0  0  0  0  0  0
   -6.0403    0.7980    2.7027 H   0  0  0  0  0  0  0  0  0  0  0  0
   -3.9325   -0.3813    2.2805 H   0  0  0  0  0  0  0  0  0  0  0  0
   -2.1477   -3.9095   -0.9017 H   0  0  0  0  0  0  0  0  0  0  0  0
    0.9750    2.4701    1.3824 H   0  0  0  0  0  0  0  0  0  0  0  0
    1.9006    1.9701    2.7772 H   0  0  0  0  0  0  0  0  0  0  0  0
    4.3865    1.0172   -2.4152 H   0  0  0  0  0  0  0  0  0  0  0  0
    4.1998    2.5411   -2.9727 H   0  0  0  0  0  0  0  0  0  0  0  0
   -3.4554    2.6452    2.2455 H   0  0  0  0  0  0  0  0  0  0  0  0
   -3.7745    1.6735    3.6925 H   0  0  0  0  0  0  0  0  0  0  0  0
   -5.1413    0.9307   -2.2916 H   0  0  0  0  0  0  0  0  0  0  0  0
   -6.6304    1.1424   -1.6551 H   0  0  0  0  0  0  0  0  0  0  0  0
    0.5802    3.2730   -1.8113 H   0  0  0  0  0  0  0  0  0  0  0  0
    4.8981    4.5680    0.5825 H   0  0  0  0  0  0  0  0  0  0  0  0
   -6.8558   -1.2844    2.1135 H   0  0  0  0  0  0  0  0  0  0  0  0
    0.2850    1.1501   -4.7740 H   0  0  0  0  0  0  0  0  0  0  0  0
   -6.7382    2.4042    1.2445 H   0  0  0  0  0  0  0  0  0  0  0  0
    0.6955    3.9416    3.2188 H   0  0  0  0  0  0  0  0  0  0  0  0
    2.2895    4.2801    3.2794 H   0  0  0  0  0  0  0  0  0  0  0  0
   -1.4726    2.0311    3.3676 H   0  0  0  0  0  0  0  0  0  0  0  0
   -1.7834    0.4407    3.1805 H   0  0  0  0  0  0  0  0  0  0  0  0
  1 20  1  0  0  0  0
  1 26  1  0  0  0  0
  2 21  1  0  0  0  0
  2 30  1  0  0  0  0
  3 26  1  0  0  0  0
  3 29  1  0  0  0  0
  4 27  1  0  0  0  0
  4 33  1  0  0  0  0
  5 23  1  0  0  0  0
  5 66  1  0  0  0  0
  6 30  1  0  0  0  0
  6 35  1  0  0  0  0
  7 33  1  0  0  0  0
  7 40  1  0  0  0  0
  8 28  1  0  0  0  0
  8 71  1  0  0  0  0
  9 32  1  0  0  0  0
  9 80  1  0  0  0  0
 10 34  1  0  0  0  0
 10 81  1  0  0  0  0
 11 37  1  0  0  0  0
 11 82  1  0  0  0  0
 12 38  1  0  0  0  0
 12 83  1  0  0  0  0
 13 39  1  0  0  0  0
 13 84  1  0  0  0  0
 14 22  1  0  0  0  0
 14 58  1  0  0  0  0
 14 59  1  0  0  0  0
 15 24  1  0  0  0  0
 15 62  1  0  0  0  0
 15 63  1  0  0  0  0
 16 31  1  0  0  0  0
 16 74  1  0  0  0  0
 16 75  1  0  0  0  0
 17 36  1  0  0  0  0
 17 78  1  0  0  0  0
 17 79  1  0  0  0  0
 18 41  1  0  0  0  0
 18 85  1  0  0  0  0
 18 86  1  0  0  0  0
 19 42  1  0  0  0  0
 19 87  1  0  0  0  0
 19 88  1  0  0  0  0
 20 21  1  0  0  0  0
 20 23  1  0  0  0  0
 20 43  1  0  0  0  0
 21 22  1  0  0  0  0
 21 44  1  0  0  0  0
 22 25  1  0  0  0  0
 22 45  1  0  0  0  0
 23 24  1  0  0  0  0
 23 46  1  0  0  0  0
 24 25  1  0  0  0  0
 24 47  1  0  0  0  0
 25 48  1  0  0  0  0
 25 49  1  0  0  0  0
 26 28  1  0  0  0  0
 26 50  1  0  0  0  0
 27 28  1  0  0  0  0
 27 29  1  0  0  0  0
 27 51  1  0  0  0  0
 28 52  1  0  0  0  0
 29 38  1  0  0  0  0
 29 53  1  0  0  0  0
 30 31  1  0  0  0  0
 30 54  1  0  0  0  0
 31 32  1  0  0  0  0
 31 55  1  0  0  0  0
 32 34  1  0  0  0  0
 32 56  1  0  0  0  0
 33 36  1  0  0  0  0
 33 57  1  0  0  0  0
 34 35  1  0  0  0  0
 34 60  1  0  0  0  0
 35 41  1  0  0  0  0
 35 61  1  0  0  0  0
 36 37  1  0  0  0  0
 36 64  1  0  0  0  0
 37 39  1  0  0  0  0
 37 65  1  0  0  0  0
 38 67  1  0  0  0  0
 38 68  1  0  0  0  0
 39 40  1  0  0  0  0
 39 69  1  0  0  0  0
 40 42  1  0  0  0  0
 40 70  1  0  0  0  0
 41 72  1  0  0  0  0
 41 73  1  0  0  0  0
 42 76  1  0  0  0  0
 42 77  1  0  0  0  0
M  END
> <DATABASE_ID>
DB00452

> <DATABASE_NAME>
drugbank

> <ORIGINAL_SOURCE>
PUBCHEM

> <ORIGINAL_SOURCE_URL>
https://pubchem.ncbi.nlm.nih.gov/rest/pug/compound/inchikey/PGBHMTALBVVCIT-VCIWKGPPSA-N/SDF?record_type=3d

> <SMILES>
NC[C@@H]1O[C@H](O[C@@H]2[C@@H](CO)O[C@@H](O[C@@H]3[C@@H](O)[C@H](N)C[C@H](N)[C@H]3O[C@H]3O[C@H](CN)[C@@H](O)[C@H](O)[C@H]3N)[C@@H]2O)[C@H](N)[C@@H](O)[C@@H]1O

> <INCHI_IDENTIFIER>
InChI=1S/C23H46N6O13/c24-2-7-13(32)15(34)10(28)21(37-7)40-18-6(27)1-5(26)12(31)20(18)42-23-17(36)19(9(4-30)39-23)41-22-11(29)16(35)14(33)8(3-25)38-22/h5-23,30-36H,1-4,24-29H2/t5-,6+,7-,8+,9-,10-,11-,12+,13-,14-,15-,16-,17-,18-,19-,20-,21-,22-,23+/m1/s1

> <INCHI_KEY>
PGBHMTALBVVCIT-VCIWKGPPSA-N

> <FORMULA>
C23H46N6O13

> <MOLECULAR_WEIGHT>
614.6437

> <EXACT_MASS>
614.312285588

> <JCHEM_ACCEPTOR_COUNT>
19

> <JCHEM_ATOM_COUNT>
88

> <JCHEM_AVERAGE_NEUTRAL_MICROSPECIES_CHARGE>
6.001604124870615

> <JCHEM_AVERAGE_POLARIZABILITY>
59.47490387620957

> <JCHEM_BIOAVAILABILITY>
0

> <JCHEM_DONOR_COUNT>
13

> <JCHEM_FORMAL_CHARGE>
0

> <JCHEM_GHOSE_FILTER>
0

> <JCHEM_IUPAC>
(2R,3S,4R,5R,6R)-5-amino-2-(aminomethyl)-6-{[(1R,2R,3S,4R,6S)-4,6-diamino-2-{[(2S,3R,4S,5R)-4-{[(2R,3R,4R,5S,6S)-3-amino-6-(aminomethyl)-4,5-dihydroxyoxan-2-yl]oxy}-3-hydroxy-5-(hydroxymethyl)oxolan-2-yl]oxy}-3-hydroxycyclohexyl]oxy}oxane-3,4-diol

> <ALOGPS_LOGP>
-2.81

> <JCHEM_LOGP>
-8.415177746000001

> <ALOGPS_LOGS>
-0.98

> <JCHEM_MDDR_LIKE_RULE>
1

> <JCHEM_NEUTRAL_CHARGE>
6

> <JCHEM_NUMBER_OF_RINGS>
4

> <JCHEM_PHYSIOLOGICAL_CHARGE>
6

> <JCHEM_PKA>
13.193857691471669

> <JCHEM_PKA_STRONGEST_ACIDIC>
12.290324665825167

> <JCHEM_PKA_STRONGEST_BASIC>
9.734546801603596

> <JCHEM_POLAR_SURFACE_AREA>
353.10999999999996

> <JCHEM_REFRACTIVITY>
135.9002999999999

> <JCHEM_ROTATABLE_BOND_COUNT>
9

> <JCHEM_RULE_OF_FIVE>
0

> <ALOGPS_SOLUBILITY>
6.47e+01 g/l

> <JCHEM_TRADITIONAL_IUPAC>
(2R,3S,4R,5R,6R)-5-amino-2-(aminomethyl)-6-{[(1R,2R,3S,4R,6S)-4,6-diamino-2-{[(2S,3R,4S,5R)-4-{[(2R,3R,4R,5S,6S)-3-amino-6-(aminomethyl)-4,5-dihydroxyoxan-2-yl]oxy}-3-hydroxy-5-(hydroxymethyl)oxolan-2-yl]oxy}-3-hydroxycyclohexyl]oxy}oxane-3,4-diol

> <JCHEM_VEBER_RULE>
0

$$$$
37768
  -OEChem-09291811473D

 83 85  0     1  0  0  0  0  0999 V2000
   -0.2481   -1.5435   -0.0318 O   0  0  0  0  0  0  0  0  0  0  0  0
   -1.0143    1.2262   -0.0189 O   0  0  0  0  0  0  0  0  0  0  0  0
    1.6187    0.4791    2.3746 O   0  0  0  0  0  0  0  0  0  0  0  0
   -0.7154   -3.6608    0.9232 O   0  0  0  0  0  0  0  0  0  0  0  0
   -1.9669    3.0045    1.2262 O   0  0  0  0  0  0  0  0  0  0  0  0
   -0.3871   -2.6479   -2.5716 O   0  0  0  0  0  0  0  0  0  0  0  0
   -3.5554    0.0746   -0.3225 O   0  0  0  0  0  0  0  0  0  0  0  0
   -4.3071   -3.3663    0.1595 O   0  0  0  0  0  0  0  0  0  0  0  0
   -5.0786    2.2906   -1.3926 O   0  0  0  0  0  0  0  0  0  0  0  0
   -3.4770    4.6550   -1.7036 O   0  0  0  0  0  0  0  0  0  0  0  0
    4.4438   -1.5561   -1.7036 O   0  0  0  0  0  0  0  0  0  0  0  0
   -1.6527   -3.7443    3.4833 O   0  0  0  0  0  0  0  0  0  0  0  0
    6.8243   -1.3551   -0.5031 O   0  0  0  0  0  0  0  0  0  0  0  0
    3.3036   -0.6804    0.1187 N   0  0  0  0  0  0  0  0  0  0  0  0
    2.5248    2.2729    0.1922 N   0  0  0  0  0  0  0  0  0  0  0  0
   -3.1638   -3.6565   -2.4905 N   0  0  0  0  0  0  0  0  0  0  0  0
   -0.5372    5.4195    1.3645 N   0  0  0  0  0  0  0  0  0  0  0  0
    6.2986    2.8934   -0.1960 N   0  0  0  0  0  0  0  0  0  0  0  0
    0.9202   -1.0504    0.6256 C   0  0  1  0  0  0  0  0  0  0  0  0
    0.2427    1.4238    0.6315 C   0  0  1  0  0  0  0  0  0  0  0  0
    1.9786   -0.7591   -0.4492 C   0  0  1  0  0  0  0  0  0  0  0  0
    0.5548    0.1783    1.4760 C   0  0  2  0  0  0  0  0  0  0  0  0
    1.3141    1.7359   -0.4302 C   0  0  2  0  0  0  0  0  0  0  0  0
    1.6412    0.4919   -1.2745 C   0  0  0  0  0  0  0  0  0  0  0  0
   -0.1857   -2.9586   -0.2015 C   0  0  1  0  0  0  0  0  0  0  0  0
   -2.0964    1.6431    0.8116 C   0  0  1  0  0  0  0  0  0  0  0  0
   -0.9272   -3.3750   -1.4736 C   0  0  1  0  0  0  0  0  0  0  0  0
   -2.4343   -3.1227   -1.3342 C   0  0  2  0  0  0  0  0  0  0  0  0
   -3.4606    1.4101    0.1602 C   0  0  1  0  0  0  0  0  0  0  0  0
   -2.9594   -3.7821   -0.0481 C   0  0  1  0  0  0  0  0  0  0  0  0
   -3.7099    2.3830   -0.9905 C   0  0  2  0  0  0  0  0  0  0  0  0
   -2.1001   -3.3866    1.1635 C   0  0  1  0  0  0  0  0  0  0  0  0
   -3.4360    3.8217   -0.5476 C   0  0  1  0  0  0  0  0  0  0  0  0
   -2.0719    3.9387    0.1457 C   0  0  1  0  0  0  0  0  0  0  0  0
    4.4357   -1.0908   -0.5659 C   0  0  0  0  0  0  0  0  0  0  0  0
   -2.4938   -4.1564    2.4216 C   0  0  0  0  0  0  0  0  0  0  0  0
   -1.8458    5.3284    0.7348 C   0  0  0  0  0  0  0  0  0  0  0  0
    5.7132   -0.8806    0.2389 C   0  0  2  0  0  0  0  0  0  0  0  0
    5.9422    0.5901    0.6082 C   0  0  0  0  0  0  0  0  0  0  0  0
    6.0680    1.5124   -0.6101 C   0  0  0  0  0  0  0  0  0  0  0  0
    1.3060   -1.8138    1.3174 H   0  0  0  0  0  0  0  0  0  0  0  0
    0.2011    2.2954    1.2966 H   0  0  0  0  0  0  0  0  0  0  0  0
    2.0009   -1.5892   -1.1650 H   0  0  0  0  0  0  0  0  0  0  0  0
   -0.3098   -0.0930    2.0906 H   0  0  0  0  0  0  0  0  0  0  0  0
    0.9222    2.5018   -1.1112 H   0  0  0  0  0  0  0  0  0  0  0  0
    0.7665    0.2667   -1.8997 H   0  0  0  0  0  0  0  0  0  0  0  0
    2.4566    0.7186   -1.9739 H   0  0  0  0  0  0  0  0  0  0  0  0
    0.8563   -3.2821   -0.3155 H   0  0  0  0  0  0  0  0  0  0  0  0
   -2.0762    1.0334    1.7214 H   0  0  0  0  0  0  0  0  0  0  0  0
    3.3970   -0.2830    1.0483 H   0  0  0  0  0  0  0  0  0  0  0  0
   -0.7599   -4.4451   -1.6543 H   0  0  0  0  0  0  0  0  0  0  0  0
   -2.6251   -2.0454   -1.3213 H   0  0  0  0  0  0  0  0  0  0  0  0
   -4.2503    1.5445    0.9105 H   0  0  0  0  0  0  0  0  0  0  0  0
    2.2996    3.1249    0.7040 H   0  0  0  0  0  0  0  0  0  0  0  0
    3.1901    2.5414   -0.5312 H   0  0  0  0  0  0  0  0  0  0  0  0
   -2.9521   -4.8736   -0.1628 H   0  0  0  0  0  0  0  0  0  0  0  0
   -3.1116    2.1137   -1.8688 H   0  0  0  0  0  0  0  0  0  0  0  0
   -2.2084   -2.3168    1.3844 H   0  0  0  0  0  0  0  0  0  0  0  0
    1.3290    1.2160    2.9388 H   0  0  0  0  0  0  0  0  0  0  0  0
   -4.2341    4.1580    0.1255 H   0  0  0  0  0  0  0  0  0  0  0  0
   -1.2718    3.7447   -0.5813 H   0  0  0  0  0  0  0  0  0  0  0  0
   -3.5346   -3.9635    2.6986 H   0  0  0  0  0  0  0  0  0  0  0  0
   -2.3500   -5.2328    2.2804 H   0  0  0  0  0  0  0  0  0  0  0  0
   -1.9200    6.0939   -0.0444 H   0  0  0  0  0  0  0  0  0  0  0  0
   -2.6075    5.5441    1.4931 H   0  0  0  0  0  0  0  0  0  0  0  0
   -4.1545   -3.4350   -2.3998 H   0  0  0  0  0  0  0  0  0  0  0  0
   -2.8396   -3.1950   -3.3394 H   0  0  0  0  0  0  0  0  0  0  0  0
    5.6351   -1.4860    1.1497 H   0  0  0  0  0  0  0  0  0  0  0  0
    0.5562   -2.8739   -2.6384 H   0  0  0  0  0  0  0  0  0  0  0  0
   -3.3704   -0.5141    0.4283 H   0  0  0  0  0  0  0  0  0  0  0  0
   -4.3113   -2.4018    0.2774 H   0  0  0  0  0  0  0  0  0  0  0  0
   -5.6353    2.5131   -0.6270 H   0  0  0  0  0  0  0  0  0  0  0  0
   -2.7520    4.3864   -2.2934 H   0  0  0  0  0  0  0  0  0  0  0  0
    6.8726    0.6593    1.1877 H   0  0  0  0  0  0  0  0  0  0  0  0
    5.1400    0.9504    1.2624 H   0  0  0  0  0  0  0  0  0  0  0  0
   -0.4631    4.7238    2.1057 H   0  0  0  0  0  0  0  0  0  0  0  0
   -0.4383    6.3289    1.8135 H   0  0  0  0  0  0  0  0  0  0  0  0
   -1.9182   -4.2477    4.2718 H   0  0  0  0  0  0  0  0  0  0  0  0
    7.5985   -1.3396    0.0851 H   0  0  0  0  0  0  0  0  0  0  0  0
    5.1634    1.4714   -1.2245 H   0  0  0  0  0  0  0  0  0  0  0  0
    6.9062    1.1938   -1.2386 H   0  0  0  0  0  0  0  0  0  0  0  0
    6.3280    3.4922   -1.0202 H   0  0  0  0  0  0  0  0  0  0  0  0
    5.5117    3.2180    0.3648 H   0  0  0  0  0  0  0  0  0  0  0  0
  1 19  1  0  0  0  0
  1 25  1  0  0  0  0
  2 20  1  0  0  0  0
  2 26  1  0  0  0  0
  3 22  1  0  0  0  0
  3 59  1  0  0  0  0
  4 25  1  0  0  0  0
  4 32  1  0  0  0  0
  5 26  1  0  0  0  0
  5 34  1  0  0  0  0
  6 27  1  0  0  0  0
  6 69  1  0  0  0  0
  7 29  1  0  0  0  0
  7 70  1  0  0  0  0
  8 30  1  0  0  0  0
  8 71  1  0  0  0  0
  9 31  1  0  0  0  0
  9 72  1  0  0  0  0
 10 33  1  0  0  0  0
 10 73  1  0  0  0  0
 11 35  2  0  0  0  0
 12 36  1  0  0  0  0
 12 78  1  0  0  0  0
 13 38  1  0  0  0  0
 13 79  1  0  0  0  0
 14 21  1  0  0  0  0
 14 35  1  0  0  0  0
 14 50  1  0  0  0  0
 15 23  1  0  0  0  0
 15 54  1  0  0  0  0
 15 55  1  0  0  0  0
 16 28  1  0  0  0  0
 16 66  1  0  0  0  0
 16 67  1  0  0  0  0
 17 37  1  0  0  0  0
 17 76  1  0  0  0  0
 17 77  1  0  0  0  0
 18 40  1  0  0  0  0
 18 82  1  0  0  0  0
 18 83  1  0  0  0  0
 19 21  1  0  0  0  0
 19 22  1  0  0  0  0
 19 41  1  0  0  0  0
 20 22  1  0  0  0  0
 20 23  1  0  0  0  0
 20 42  1  0  0  0  0
 21 24  1  0  0  0  0
 21 43  1  0  0  0  0
 22 44  1  0  0  0  0
 23 24  1  0  0  0  0
 23 45  1  0  0  0  0
 24 46  1  0  0  0  0
 24 47  1  0  0  0  0
 25 27  1  0  0  0  0
 25 48  1  0  0  0  0
 26 29  1  0  0  0  0
 26 49  1  0  0  0  0
 27 28  1  0  0  0  0
 27 51  1  0  0  0  0
 28 30  1  0  0  0  0
 28 52  1  0  0  0  0
 29 31  1  0  0  0  0
 29 53  1  0  0  0  0
 30 32  1  0  0  0  0
 30 56  1  0  0  0  0
 31 33  1  0  0  0  0
 31 57  1  0  0  0  0
 32 36  1  0  0  0  0
 32 58  1  0  0  0  0
 33 34  1  0  0  0  0
 33 60  1  0  0  0  0
 34 37  1  0  0  0  0
 34 61  1  0  0  0  0
 35 38  1  0  0  0  0
 36 62  1  0  0  0  0
 36 63  1  0  0  0  0
 37 64  1  0  0  0  0
 37 65  1  0  0  0  0
 38 39  1  0  0  0  0
 38 68  1  0  0  0  0
 39 40  1  0  0  0  0
 39 74  1  0  0  0  0
 39 75  1  0  0  0  0
 40 80  1  0  0  0  0
 40 81  1  0  0  0  0
M  END
> <DATABASE_ID>
DB00479

> <DATABASE_NAME>
drugbank

> <ORIGINAL_SOURCE>
PUBCHEM

> <ORIGINAL_SOURCE_URL>
https://pubchem.ncbi.nlm.nih.gov/rest/pug/compound/inchikey/LKCWBDHBTVXHDL-RMDFUYIESA-N/SDF?record_type=3d

> <SMILES>
NCC[C@H](O)C(=O)N[C@@H]1C[C@H](N)[C@@H](O[C@H]2O[C@H](CN)[C@@H](O)[C@H](O)[C@H]2O)[C@H](O)[C@H]1O[C@H]1O[C@H](CO)[C@@H](O)[C@H](N)[C@H]1O

> <INCHI_IDENTIFIER>
InChI=1S/C22H43N5O13/c23-2-1-8(29)20(36)27-7-3-6(25)18(39-22-16(34)15(33)13(31)9(4-24)37-22)17(35)19(7)40-21-14(32)11(26)12(30)10(5-28)38-21/h6-19,21-22,28-35H,1-5,23-26H2,(H,27,36)/t6-,7+,8-,9+,10+,11-,12+,13+,14+,15-,16+,17-,18+,19-,21+,22+/m0/s1

> <INCHI_KEY>
LKCWBDHBTVXHDL-RMDFUYIESA-N

> <FORMULA>
C22H43N5O13

> <MOLECULAR_WEIGHT>
585.6025

> <EXACT_MASS>
585.285736487

> <JCHEM_ACCEPTOR_COUNT>
17

> <JCHEM_ATOM_COUNT>
83

> <JCHEM_AVERAGE_POLARIZABILITY>
58.060396682395805

> <JCHEM_BIOAVAILABILITY>
0

> <JCHEM_DONOR_COUNT>
13

> <JCHEM_FORMAL_CHARGE>
0

> <JCHEM_GHOSE_FILTER>
0

> <JCHEM_IUPAC>
(2S)-4-amino-N-[(1R,2S,3S,4R,5S)-5-amino-2-{[(2S,3R,4S,5S,6R)-4-amino-3,5-dihydroxy-6-(hydroxymethyl)oxan-2-yl]oxy}-4-{[(2R,3R,4S,5S,6R)-6-(aminomethyl)-3,4,5-trihydroxyoxan-2-yl]oxy}-3-hydroxycyclohexyl]-2-hydroxybutanamide

> <ALOGPS_LOGP>
-3.22

> <JCHEM_LOGP>
-8.584382674

> <ALOGPS_LOGS>
-1.07

> <JCHEM_MDDR_LIKE_RULE>
1

> <JCHEM_NUMBER_OF_RINGS>
3

> <JCHEM_PHYSIOLOGICAL_CHARGE>
4

> <JCHEM_PKA>
12.70598939175315

> <JCHEM_PKA_STRONGEST_ACIDIC>
12.104233562206012

> <JCHEM_PKA_STRONGEST_BASIC>
9.794402745081491

> <JCHEM_POLAR_SURFACE_AREA>
331.93999999999994

> <JCHEM_REFRACTIVITY>
129.84099999999992

> <JCHEM_ROTATABLE_BOND_COUNT>
10

> <JCHEM_RULE_OF_FIVE>
0

> <ALOGPS_SOLUBILITY>
4.97e+01 g/l

> <JCHEM_TRADITIONAL_IUPAC>
amikacin

> <JCHEM_VEBER_RULE>
0

$$$$

  Mrv1909 10301918402D          

 44 47  0  0  0  0            999 V2000
    3.2354    1.0389    0.0000 C   0  0  0  0  0  0  0  0  0  0  0  0
    3.9383    0.6112    0.0000 C   0  0  0  0  0  0  0  0  0  0  0  0
    3.9383   -0.2138    0.0000 C   0  0  0  0  0  0  0  0  0  0  0  0
    3.2354   -0.6112    0.0000 C   0  0  2  0  0  0  0  0  0  0  0  0
    2.5021   -0.2138    0.0000 C   0  0  2  0  0  0  0  0  0  0  0  0
    1.7992   -0.6112    0.0000 C   0  0  0  0  0  0  0  0  0  0  0  0
    1.0658   -0.2138    0.0000 C   0  0  2  0  0  0  0  0  0  0  0  0
    0.3629   -0.6112    0.0000 C   0  0  0  0  0  0  0  0  0  0  0  0
   -0.3703   -0.2138    0.0000 C   0  0  0  0  0  0  0  0  0  0  0  0
   -1.0732   -0.6112    0.0000 C   0  0  0  0  0  0  0  0  0  0  0  0
   -1.8065   -0.2138    0.0000 C   0  0  0  0  0  0  0  0  0  0  0  0
   -1.8065    0.6112    0.0000 C   0  0  0  0  0  0  0  0  0  0  0  0
   -1.0732    1.0389    0.0000 C   0  0  0  0  0  0  0  0  0  0  0  0
   -0.3703    0.6112    0.0000 C   0  0  0  0  0  0  0  0  0  0  0  0
    0.3629    1.0389    0.0000 C   0  0  0  0  0  0  0  0  0  0  0  0
    1.0658    0.6112    0.0000 C   0  0  0  0  0  0  0  0  0  0  0  0
    1.7992    1.0389    0.0000 C   0  0  0  0  0  0  0  0  0  0  0  0
    2.5021    0.6112    0.0000 C   0  0  2  0  0  0  0  0  0  0  0  0
    4.6716    1.0389    0.0000 C   0  0  0  0  0  0  0  0  0  0  0  0
    4.6716    1.8640    0.0000 O   0  0  0  0  0  0  0  0  0  0  0  0
    5.3744    0.6112    0.0000 N   0  0  0  0  0  0  0  0  0  0  0  0
    0.3629    1.8640    0.0000 O   0  0  0  0  0  0  0  0  0  0  0  0
    3.2354    1.8640    0.0000 O   0  0  0  0  0  0  0  0  0  0  0  0
    2.5021    1.4362    0.0000 O   0  0  0  0  0  0  0  0  0  0  0  0
    1.7992    1.8640    0.0000 O   0  0  0  0  0  0  0  0  0  0  0  0
   -1.0732    1.8640    0.0000 O   0  0  0  0  0  0  0  0  0  0  0  0
    4.6716   -0.6112    0.0000 O   0  0  0  0  0  0  0  0  0  0  0  0
   -2.5094    1.0389    0.0000 N   0  0  0  0  0  0  0  0  0  0  0  0
   -1.0732   -1.4669    0.0000 N   0  0  0  0  0  0  0  0  0  0  0  0
   -1.8065   -1.8640    0.0000 C   0  0  0  0  0  0  0  0  0  0  0  0
   -0.3703   -1.8640    0.0000 C   0  0  0  0  0  0  0  0  0  0  0  0
    3.2354   -1.4669    0.0000 N   0  0  0  0  0  0  0  0  0  0  0  0
    3.9383   -1.8640    0.0000 C   0  0  0  0  0  0  0  0  0  0  0  0
    2.5021   -1.8640    0.0000 C   0  0  0  0  0  0  0  0  0  0  0  0
    2.5021   -1.0389    0.0000 H   0  0  0  0  0  0  0  0  0  0  0  0
    1.0658   -1.0389    0.0000 H   0  0  0  0  0  0  0  0  0  0  0  0
   -3.2285    0.6250    0.0000 C   0  0  0  0  0  0  0  0  0  0  0  0
   -3.9425    1.0386    0.0000 C   0  0  0  0  0  0  0  0  0  0  0  0
   -3.2297   -0.2000    0.0000 O   0  0  0  0  0  0  0  0  0  0  0  0
   -4.6600    0.6250    0.0000 N   0  0  0  0  0  0  0  0  0  0  0  0
   -4.6600   -0.2000    0.0000 C   0  0  0  0  0  0  0  0  0  0  0  0
   -5.3744   -0.6125    0.0000 C   0  0  0  0  0  0  0  0  0  0  0  0
   -3.9455   -0.6125    0.0000 C   0  0  0  0  0  0  0  0  0  0  0  0
   -4.6600   -1.0250    0.0000 C   0  0  0  0  0  0  0  0  0  0  0  0
  2  1  1  0  0  0  0
 18  1  1  0  0  0  0
 23  1  2  0  0  0  0
  3  2  2  0  0  0  0
 19  2  1  0  0  0  0
  4  3  1  0  0  0  0
 27  3  1  0  0  0  0
  5  4  1  0  0  0  0
  4 32  1  1  0  0  0
  6  5  1  0  0  0  0
 18  5  1  0  0  0  0
  5 35  1  1  0  0  0
  7  6  1  0  0  0  0
  8  7  1  0  0  0  0
 16  7  1  0  0  0  0
  7 36  1  1  0  0  0
  9  8  1  0  0  0  0
 10  9  1  0  0  0  0
 14  9  2  0  0  0  0
 11 10  2  0  0  0  0
 29 10  1  0  0  0  0
 12 11  1  0  0  0  0
 13 12  2  0  0  0  0
 28 12  1  0  0  0  0
 14 13  1  0  0  0  0
 26 13  1  0  0  0  0
 15 14  1  0  0  0  0
 16 15  1  0  0  0  0
 22 15  2  0  0  0  0
 17 16  2  0  0  0  0
 18 17  1  0  0  0  0
 25 17  1  0  0  0  0
 18 24  1  1  0  0  0
 20 19  2  0  0  0  0
 21 19  1  0  0  0  0
 30 29  1  0  0  0  0
 31 29  1  0  0  0  0
 33 32  1  0  0  0  0
 34 32  1  0  0  0  0
 28 37  1  0  0  0  0
 37 38  1  0  0  0  0
 37 39  2  0  0  0  0
 38 40  1  0  0  0  0
 40 41  1  0  0  0  0
 41 42  1  0  0  0  0
 41 43  1  0  0  0  0
 41 44  1  0  0  0  0
M  END
> <DATABASE_ID>
DB00560

> <DATABASE_NAME>
drugbank

> <SMILES>
[H][C@@]12CC3=C(C(O)=C(NC(=O)CNC(C)(C)C)C=C3N(C)C)C(=O)C1=C(O)[C@]1(O)C(=O)C(C(N)=O)=C(O)[C@@H](N(C)C)[C@]1([H])C2

> <INCHI_IDENTIFIER>
InChI=1S/C29H39N5O8/c1-28(2,3)31-11-17(35)32-15-10-16(33(4)5)13-8-12-9-14-21(34(6)7)24(38)20(27(30)41)26(40)29(14,42)25(39)18(12)23(37)19(13)22(15)36/h10,12,14,21,31,36,38-39,42H,8-9,11H2,1-7H3,(H2,30,41)(H,32,35)/t12-,14-,21-,29-/m0/s1

> <INCHI_KEY>
FPZLLRFZJZRHSY-HJYUBDRYSA-N

> <FORMULA>
C29H39N5O8

> <MOLECULAR_WEIGHT>
585.6487

> <EXACT_MASS>
585.279863249

> <JCHEM_ACCEPTOR_COUNT>
11

> <JCHEM_ATOM_COUNT>
81

> <JCHEM_AVERAGE_POLARIZABILITY>
61.56323398222355

> <JCHEM_BIOAVAILABILITY>
0

> <JCHEM_DONOR_COUNT>
7

> <JCHEM_FORMAL_CHARGE>
0

> <JCHEM_GHOSE_FILTER>
0

> <JCHEM_IUPAC>
(4S,4aS,5aR,12aS)-9-[2-(tert-butylamino)acetamido]-4,7-bis(dimethylamino)-3,10,12,12a-tetrahydroxy-1,11-dioxo-1,4,4a,5,5a,6,11,12a-octahydrotetracene-2-carboxamide

> <ALOGPS_LOGP>
0.66

> <JCHEM_LOGP>
-3.8716469711281114

> <ALOGPS_LOGS>
-3.11

> <JCHEM_MDDR_LIKE_RULE>
1

> <JCHEM_NUMBER_OF_RINGS>
4

> <JCHEM_PHYSIOLOGICAL_CHARGE>
1

> <JCHEM_PKA>
7.351721087130572

> <JCHEM_PKA_STRONGEST_ACIDIC>
3.168151000454865

> <JCHEM_PKA_STRONGEST_BASIC>
8.96576120109409

> <JCHEM_POLAR_SURFACE_AREA>
205.75999999999996

> <JCHEM_REFRACTIVITY>
159.34309999999994

> <JCHEM_ROTATABLE_BOND_COUNT>
7

> <JCHEM_RULE_OF_FIVE>
0

> <ALOGPS_SOLUBILITY>
4.50e-01 g/l

> <JCHEM_TRADITIONAL_IUPAC>
tigecycline

> <JCHEM_VEBER_RULE>
0

> <DRUGBANK_ID>
DB00560

> <SECONDARY_ACCESSION_NUMBERS>
APRD01307

> <DRUG_GROUPS>
approved

> <GENERIC_NAME>
Tigecycline

> <SYNONYMS>
(4S,4aS,5aR,12aS)-9-(2-(tert-butylamino)acetamido)-4,7-bis(dimethylamino)-1,4,4a,5,5a,6,11,12a-octahydro-3,10,12,12a-tetrahydroxy-1,11-dioxo-2-naphthacenecarboxamide; Tigeciclina; Tigecycline; Tigecyclinum

> <PRODUCTS>
Tigecycline; Tigecycline for Injection; Tygacil

$$$$
5328
  -OEChem-10051719183D

 27 28  0     0  0  0  0  0  0999 V2000
    0.4282    2.2166    0.1150 S   0  0  0  0  0  0  0  0  0  0  0  0
   -2.5733   -0.3326   -1.4850 S   0  0  0  0  0  0  0  0  0  0  0  0
    1.1936    3.1892   -0.6559 O   0  0  0  0  0  0  0  0  0  0  0  0
    0.0941    2.5246    1.5002 O   0  0  0  0  0  0  0  0  0  0  0  0
   -1.0123    1.8559   -0.7588 N   0  0  0  0  0  0  0  0  0  0  0  0
   -1.9298    0.3369    0.9034 N   0  0  0  0  0  0  0  0  0  0  0  0
    3.3852   -2.9402   -0.0293 N   0  0  0  0  0  0  0  0  0  0  0  0
   -2.7042   -0.8032    1.0303 N   0  0  0  0  0  0  0  0  0  0  0  0
    1.2962    0.7024    0.0726 C   0  0  0  0  0  0  0  0  0  0  0  0
    2.1816    0.4350   -0.9717 C   0  0  0  0  0  0  0  0  0  0  0  0
    1.1045   -0.2402    1.0829 C   0  0  0  0  0  0  0  0  0  0  0  0
    2.6833   -1.7172    0.0043 C   0  0  0  0  0  0  0  0  0  0  0  0
    2.8749   -0.7748   -1.0058 C   0  0  0  0  0  0  0  0  0  0  0  0
    1.7981   -1.4499    1.0487 C   0  0  0  0  0  0  0  0  0  0  0  0
   -1.7747    0.7033   -0.3607 C   0  0  0  0  0  0  0  0  0  0  0  0
   -3.1043   -1.2543   -0.1393 C   0  0  0  0  0  0  0  0  0  0  0  0
   -3.9412   -2.4518   -0.3509 C   0  0  0  0  0  0  0  0  0  0  0  0
   -1.0207    2.0591   -1.7658 H   0  0  0  0  0  0  0  0  0  0  0  0
    2.3412    1.1508   -1.7731 H   0  0  0  0  0  0  0  0  0  0  0  0
    0.4378   -0.0502    1.9185 H   0  0  0  0  0  0  0  0  0  0  0  0
    3.5609   -0.9721   -1.8257 H   0  0  0  0  0  0  0  0  0  0  0  0
    1.6434   -2.1746    1.8441 H   0  0  0  0  0  0  0  0  0  0  0  0
    4.0260   -3.1353   -0.7871 H   0  0  0  0  0  0  0  0  0  0  0  0
    3.2450   -3.6245    0.7020 H   0  0  0  0  0  0  0  0  0  0  0  0
   -4.8798   -2.1922   -0.8510 H   0  0  0  0  0  0  0  0  0  0  0  0
   -3.4157   -3.1963   -0.9576 H   0  0  0  0  0  0  0  0  0  0  0  0
   -4.1921   -2.9193    0.6068 H   0  0  0  0  0  0  0  0  0  0  0  0
  1  3  2  0  0  0  0
  1  4  2  0  0  0  0
  1  5  1  0  0  0  0
  1  9  1  0  0  0  0
  2 15  1  0  0  0  0
  2 16  1  0  0  0  0
  5 15  1  0  0  0  0
  5 18  1  0  0  0  0
  6  8  1  0  0  0  0
  6 15  2  0  0  0  0
  7 12  1  0  0  0  0
  7 23  1  0  0  0  0
  7 24  1  0  0  0  0
  8 16  2  0  0  0  0
  9 10  2  0  0  0  0
  9 11  1  0  0  0  0
 10 13  1  0  0  0  0
 10 19  1  0  0  0  0
 11 14  2  0  0  0  0
 11 20  1  0  0  0  0
 12 13  2  0  0  0  0
 12 14  1  0  0  0  0
 13 21  1  0  0  0  0
 14 22  1  0  0  0  0
 16 17  1  0  0  0  0
 17 25  1  0  0  0  0
 17 26  1  0  0  0  0
 17 27  1  0  0  0  0
M  END
> <DATABASE_ID>
DB00576

> <DATABASE_NAME>
drugbank

> <ORIGINAL_SOURCE>
PUBCHEM

> <ORIGINAL_SOURCE_URL>
https://pubchem.ncbi.nlm.nih.gov/rest/pug/compound/inchikey/VACCAVUAMIDAGB-UHFFFAOYSA-N/SDF?record_type=3d

> <SMILES>
CC1=NN=C(NS(=O)(=O)C2=CC=C(N)C=C2)S1

> <INCHI_IDENTIFIER>
InChI=1S/C9H10N4O2S2/c1-6-11-12-9(16-6)13-17(14,15)8-4-2-7(10)3-5-8/h2-5H,10H2,1H3,(H,12,13)

> <INCHI_KEY>
VACCAVUAMIDAGB-UHFFFAOYSA-N

> <FORMULA>
C9H10N4O2S2

> <MOLECULAR_WEIGHT>
270.331

> <EXACT_MASS>
270.024516964

> <JCHEM_ACCEPTOR_COUNT>
5

> <JCHEM_AVERAGE_POLARIZABILITY>
26.264209134273333

> <JCHEM_BIOAVAILABILITY>
1

> <JCHEM_DONOR_COUNT>
2

> <JCHEM_FORMAL_CHARGE>
0

> <JCHEM_GHOSE_FILTER>
1

> <JCHEM_IUPAC>
4-amino-N-(5-methyl-1,3,4-thiadiazol-2-yl)benzene-1-sulfonamide

> <ALOGPS_LOGP>
0.53

> <JCHEM_LOGP>
0.21434596466666644

> <ALOGPS_LOGS>
-2.65

> <JCHEM_MDDR_LIKE_RULE>
0

> <JCHEM_NUMBER_OF_RINGS>
2

> <JCHEM_PHYSIOLOGICAL_CHARGE>
-1

> <JCHEM_PKA_STRONGEST_ACIDIC>
6.707642187543112

> <JCHEM_PKA_STRONGEST_BASIC>
1.951757408153643

> <JCHEM_POLAR_SURFACE_AREA>
97.97

> <JCHEM_REFRACTIVITY>
66.8358

> <JCHEM_ROTATABLE_BOND_COUNT>
2

> <JCHEM_RULE_OF_FIVE>
1

> <ALOGPS_SOLUBILITY>
6.11e-01 g/l

> <JCHEM_TRADITIONAL_IUPAC>
sulfamethizole

> <JCHEM_VEBER_RULE>
0

$$$$
20824
  -OEChem-10051719183D

 44 46  0     1  0  0  0  0  0999 V2000
   -1.1450    1.0758    0.7395 S   0  0  0  0  0  0  0  0  0  0  0  0
   -2.4726   -2.5628   -1.3604 O   0  0  0  0  0  0  0  0  0  0  0  0
   -5.5579    1.0459   -1.0011 O   0  0  0  0  0  0  0  0  0  0  0  0
   -5.4510   -0.8213    0.3022 O   0  0  0  0  0  0  0  0  0  0  0  0
    1.5923   -1.0990    1.7172 O   0  0  0  0  0  0  0  0  0  0  0  0
    4.7506   -1.7202   -1.2384 O   0  0  0  0  0  0  0  0  0  0  0  0
    3.7995   -2.8330    0.4910 O   0  0  0  0  0  0  0  0  0  0  0  0
   -2.7977   -0.8603    0.2415 N   0  0  0  0  0  0  0  0  0  0  0  0
    0.2922   -1.4812   -0.1673 N   0  0  0  0  0  0  0  0  0  0  0  0
   -1.7075   -0.6068    1.1881 C   0  0  1  0  0  0  0  0  0  0  0  0
   -2.8666    1.5523    0.2115 C   0  0  0  0  0  0  0  0  0  0  0  0
   -3.4214    0.2621   -0.4296 C   0  0  2  0  0  0  0  0  0  0  0  0
   -0.9599   -1.7810    0.5415 C   0  0  1  0  0  0  0  0  0  0  0  0
   -2.1875   -1.9099   -0.3822 C   0  0  0  0  0  0  0  0  0  0  0  0
   -3.6292    2.0233    1.4574 C   0  0  0  0  0  0  0  0  0  0  0  0
   -2.7772    2.6884   -0.8089 C   0  0  0  0  0  0  0  0  0  0  0  0
   -4.9011    0.0773   -0.3171 C   0  0  0  0  0  0  0  0  0  0  0  0
    1.4785   -1.1611    0.4944 C   0  0  0  0  0  0  0  0  0  0  0  0
    2.6459   -0.8954   -0.4545 C   0  0  1  0  0  0  0  0  0  0  0  0
    3.1430    0.5331   -0.2948 C   0  0  0  0  0  0  0  0  0  0  0  0
    3.7692   -1.9142   -0.3172 C   0  0  0  0  0  0  0  0  0  0  0  0
    2.5864    1.5254   -1.0765 C   0  0  0  0  0  0  0  0  0  0  0  0
    4.1364    0.7956    0.6268 C   0  0  0  0  0  0  0  0  0  0  0  0
    3.0425    2.8356   -0.9304 C   0  0  0  0  0  0  0  0  0  0  0  0
    4.5926    2.1057    0.7731 C   0  0  0  0  0  0  0  0  0  0  0  0
    4.0456    3.1256   -0.0057 C   0  0  0  0  0  0  0  0  0  0  0  0
   -2.0091   -0.7460    2.2302 H   0  0  0  0  0  0  0  0  0  0  0  0
   -3.1553    0.1914   -1.4929 H   0  0  0  0  0  0  0  0  0  0  0  0
   -0.8467   -2.6518    1.1983 H   0  0  0  0  0  0  0  0  0  0  0  0
   -4.6328    2.3779    1.1978 H   0  0  0  0  0  0  0  0  0  0  0  0
   -3.7475    1.2243    2.1979 H   0  0  0  0  0  0  0  0  0  0  0  0
   -3.1176    2.8607    1.9469 H   0  0  0  0  0  0  0  0  0  0  0  0
   -2.2050    2.3947   -1.6966 H   0  0  0  0  0  0  0  0  0  0  0  0
   -3.7724    2.9943   -1.1490 H   0  0  0  0  0  0  0  0  0  0  0  0
   -2.2964    3.5759   -0.3807 H   0  0  0  0  0  0  0  0  0  0  0  0
    0.3024   -1.5073   -1.1840 H   0  0  0  0  0  0  0  0  0  0  0  0
    2.2914   -1.0243   -1.4873 H   0  0  0  0  0  0  0  0  0  0  0  0
   -6.5314    0.9427   -0.9387 H   0  0  0  0  0  0  0  0  0  0  0  0
    1.8032    1.3086   -1.7968 H   0  0  0  0  0  0  0  0  0  0  0  0
    4.5654    0.0218    1.2556 H   0  0  0  0  0  0  0  0  0  0  0  0
    2.6157    3.6299   -1.5357 H   0  0  0  0  0  0  0  0  0  0  0  0
    5.3707    2.3326    1.4960 H   0  0  0  0  0  0  0  0  0  0  0  0
    5.4646   -2.3880   -1.1571 H   0  0  0  0  0  0  0  0  0  0  0  0
    4.3998    4.1458    0.1091 H   0  0  0  0  0  0  0  0  0  0  0  0
  1 10  1  0  0  0  0
  1 11  1  0  0  0  0
  2 14  2  0  0  0  0
  3 17  1  0  0  0  0
  3 38  1  0  0  0  0
  4 17  2  0  0  0  0
  5 18  2  0  0  0  0
  6 21  1  0  0  0  0
  6 43  1  0  0  0  0
  7 21  2  0  0  0  0
  8 10  1  0  0  0  0
  8 12  1  0  0  0  0
  8 14  1  0  0  0  0
  9 13  1  0  0  0  0
  9 18  1  0  0  0  0
  9 36  1  0  0  0  0
 10 13  1  0  0  0  0
 10 27  1  0  0  0  0
 11 12  1  0  0  0  0
 11 15  1  0  0  0  0
 11 16  1  0  0  0  0
 12 17  1  0  0  0  0
 12 28  1  0  0  0  0
 13 14  1  0  0  0  0
 13 29  1  0  0  0  0
 15 30  1  0  0  0  0
 15 31  1  0  0  0  0
 15 32  1  0  0  0  0
 16 33  1  0  0  0  0
 16 34  1  0  0  0  0
 16 35  1  0  0  0  0
 18 19  1  0  0  0  0
 19 20  1  0  0  0  0
 19 21  1  0  0  0  0
 19 37  1  0  0  0  0
 20 22  2  0  0  0  0
 20 23  1  0  0  0  0
 22 24  1  0  0  0  0
 22 39  1  0  0  0  0
 23 25  2  0  0  0  0
 23 40  1  0  0  0  0
 24 26  2  0  0  0  0
 24 41  1  0  0  0  0
 25 26  1  0  0  0  0
 25 42  1  0  0  0  0
 26 44  1  0  0  0  0
M  END
> <DATABASE_ID>
DB00578

> <DATABASE_NAME>
drugbank

> <ORIGINAL_SOURCE>
PUBCHEM

> <ORIGINAL_SOURCE_URL>
https://pubchem.ncbi.nlm.nih.gov/rest/pug/compound/inchikey/FPPNZSSZRUTDAP-UWFZAAFLSA-N/SDF?record_type=3d

> <SMILES>
[H][C@]12SC(C)(C)[C@@H](N1C(=O)[C@H]2NC(=O)C(C(O)=O)C1=CC=CC=C1)C(O)=O

> <INCHI_IDENTIFIER>
InChI=1S/C17H18N2O6S/c1-17(2)11(16(24)25)19-13(21)10(14(19)26-17)18-12(20)9(15(22)23)8-6-4-3-5-7-8/h3-7,9-11,14H,1-2H3,(H,18,20)(H,22,23)(H,24,25)/t9?,10-,11+,14-/m1/s1

> <INCHI_KEY>
FPPNZSSZRUTDAP-UWFZAAFLSA-N

> <FORMULA>
C17H18N2O6S

> <MOLECULAR_WEIGHT>
378.4

> <EXACT_MASS>
378.088557008

> <JCHEM_ACCEPTOR_COUNT>
6

> <JCHEM_AVERAGE_POLARIZABILITY>
36.387179678679935

> <JCHEM_BIOAVAILABILITY>
1

> <JCHEM_DONOR_COUNT>
3

> <JCHEM_FORMAL_CHARGE>
0

> <JCHEM_GHOSE_FILTER>
1

> <JCHEM_IUPAC>
(2S,5R,6R)-6-(2-carboxy-2-phenylacetamido)-3,3-dimethyl-7-oxo-4-thia-1-azabicyclo[3.2.0]heptane-2-carboxylic acid

> <ALOGPS_LOGP>
1.13

> <JCHEM_LOGP>
0.8153568303333337

> <ALOGPS_LOGS>
-2.99

> <JCHEM_MDDR_LIKE_RULE>
0

> <JCHEM_NUMBER_OF_RINGS>
3

> <JCHEM_PHYSIOLOGICAL_CHARGE>
-2

> <JCHEM_PKA>
3.861609022252315

> <JCHEM_PKA_STRONGEST_ACIDIC>
3.1068085753126673

> <JCHEM_PKA_STRONGEST_BASIC>
-6.32383417433641

> <JCHEM_POLAR_SURFACE_AREA>
124.01

> <JCHEM_REFRACTIVITY>
90.81950000000002

> <JCHEM_ROTATABLE_BOND_COUNT>
5

> <JCHEM_RULE_OF_FIVE>
1

> <ALOGPS_SOLUBILITY>
3.90e-01 g/l

> <JCHEM_TRADITIONAL_IUPAC>
carbenicillin

> <JCHEM_VEBER_RULE>
0

$$$$

  Mrv1718012301821502D          

 35 38  0  0  0  0            999 V2000
    0.6948   -0.1983    0.0000 C   0  0  1  0  0  0  0  0  0  0  0  0
    0.7048    0.6038    0.0000 C   0  0  2  0  0  0  0  0  0  0  0  0
   -0.0398   -0.6034    0.0000 C   0  0  2  0  0  0  0  0  0  0  0  0
    1.4168   -0.6403    0.0000 C   0  0  1  0  0  0  0  0  0  0  0  0
   -0.0005    1.0216    0.0000 C   0  0  0  0  0  0  0  0  0  0  0  0
    1.4548    1.0458    0.0000 C   0  0  0  0  0  0  0  0  0  0  0  0
    0.7048    1.4289    0.0000 O   0  0  0  0  0  0  0  0  0  0  0  0
   -0.7495   -0.1971    0.0000 C   0  0  1  0  0  0  0  0  0  0  0  0
   -0.0398   -1.4283    0.0000 O   0  0  0  0  0  0  0  0  0  0  0  0
    2.1632   -0.2198    0.0000 C   0  0  0  0  0  0  0  0  0  0  0  0
    1.4168   -1.4652    0.0000 N   0  0  0  0  0  0  0  0  0  0  0  0
   -0.7425    0.6279    0.0000 C   0  0  0  0  0  0  0  0  0  0  0  0
   -0.0005    1.8465    0.0000 O   0  0  0  0  0  0  0  0  0  0  0  0
    2.1697    0.5922    0.0000 C   0  0  0  0  0  0  0  0  0  0  0  0
    1.4548    1.8708    0.0000 O   0  0  0  0  0  0  0  0  0  0  0  0
   -1.4708   -0.6022    0.0000 C   0  0  2  0  0  0  0  0  0  0  0  0
    2.8790   -0.6324    0.0000 O   0  0  0  0  0  0  0  0  0  0  0  0
    2.1245   -1.8729    0.0000 C   0  0  0  0  0  0  0  0  0  0  0  0
    0.6967   -1.8783    0.0000 C   0  0  0  0  0  0  0  0  0  0  0  0
   -1.4412    1.0533    0.0000 C   0  0  0  0  0  0  0  0  0  0  0  0
    2.8856    1.0048    0.0000 C   0  0  0  0  0  0  0  0  0  0  0  0
   -2.1746   -0.1843    0.0000 C   0  0  0  0  0  0  0  0  0  0  0  0
   -2.1066   -1.1256    0.0000 C   0  0  0  0  0  0  0  0  0  0  0  0
   -2.1746    0.6407    0.0000 C   0  0  0  0  0  0  0  0  0  0  0  0
   -1.4412    1.8783    0.0000 O   0  0  0  0  0  0  0  0  0  0  0  0
    3.6053    0.5878    0.0000 N   0  0  0  0  0  0  0  0  0  0  0  0
    2.8856    1.8250    0.0000 O   0  0  0  0  0  0  0  0  0  0  0  0
   -2.8910   -0.5852    0.0000 C   0  0  0  0  0  0  0  0  0  0  0  0
   -2.8594    1.0533    0.0000 C   0  0  0  0  0  0  0  0  0  0  0  0
   -3.6053   -0.1740    0.0000 C   0  0  0  0  0  0  0  0  0  0  0  0
   -3.6053    0.6523    0.0000 C   0  0  0  0  0  0  0  0  0  0  0  0
   -2.8594    1.8782    0.0000 O   0  0  0  0  0  0  0  0  0  0  0  0
    0.6948   -1.0228    0.0000 H   0  0  0  0  0  0  0  0  0  0  0  0
   -0.7495   -1.0221    0.0000 H   0  0  0  0  0  0  0  0  0  0  0  0
   -1.2603   -1.3979    0.0000 O   0  0  0  0  0  0  0  0  0  0  0  0
  1  2  1  0  0  0  0
  1  3  1  0  0  0  0
  1  4  1  0  0  0  0
  2  5  1  0  0  0  0
  2  6  1  0  0  0  0
  2  7  1  1  0  0  0
  3  8  1  0  0  0  0
  3  9  1  1  0  0  0
  4 10  1  0  0  0  0
  4 11  1  1  0  0  0
  5 12  2  0  0  0  0
  5 13  1  0  0  0  0
  6 14  1  0  0  0  0
  6 15  2  0  0  0  0
  8 16  1  0  0  0  0
 10 17  1  0  0  0  0
 11 18  1  0  0  0  0
 11 19  1  0  0  0  0
 12 20  1  0  0  0  0
 14 21  1  0  0  0  0
 16 22  1  0  0  0  0
 16 23  1  1  0  0  0
 20 24  1  0  0  0  0
 20 25  2  0  0  0  0
 21 26  1  0  0  0  0
 21 27  2  0  0  0  0
 22 28  1  0  0  0  0
 24 29  1  0  0  0  0
 28 30  2  0  0  0  0
 29 31  2  0  0  0  0
 29 32  1  0  0  0  0
  8 12  1  0  0  0  0
 10 14  2  0  0  0  0
 22 24  2  0  0  0  0
 30 31  1  0  0  0  0
  1 33  1  1  0  0  0
  8 34  1  1  0  0  0
 16 35  1  0  0  0  0
M  END
> <DATABASE_ID>
DB00595

> <DATABASE_NAME>
drugbank

> <SMILES>
[H][C@@]12[C@@H](O)[C@@]3([H])C(C(=O)C4=C(C=CC=C4O)[C@@]3(C)O)=C(O)[C@]1(O)C(=O)C(C(N)=O)=C(O)[C@H]2N(C)C

> <INCHI_IDENTIFIER>
InChI=1S/C22H24N2O9/c1-21(32)7-5-4-6-8(25)9(7)15(26)10-12(21)17(28)13-14(24(2)3)16(27)11(20(23)31)19(30)22(13,33)18(10)29/h4-6,12-14,17,25,27-29,32-33H,1-3H3,(H2,23,31)/t12-,13-,14+,17+,21-,22+/m1/s1

> <INCHI_KEY>
IWVCMVBTMGNXQD-PXOLEDIWSA-N

> <FORMULA>
C22H24N2O9

> <MOLECULAR_WEIGHT>
460.434

> <EXACT_MASS>
460.148180376

> <JCHEM_ACCEPTOR_COUNT>
10

> <JCHEM_ATOM_COUNT>
57

> <JCHEM_AVERAGE_POLARIZABILITY>
43.218888299800234

> <JCHEM_BIOAVAILABILITY>
0

> <JCHEM_DONOR_COUNT>
7

> <JCHEM_FORMAL_CHARGE>
0

> <JCHEM_GHOSE_FILTER>
0

> <JCHEM_IUPAC>
(4S,4aR,5S,5aR,6S,12aS)-4-(dimethylamino)-3,5,6,10,12,12a-hexahydroxy-6-methyl-1,11-dioxo-1,4,4a,5,5a,6,11,12a-octahydrotetracene-2-carboxamide

> <ALOGPS_LOGP>
-0.99

> <JCHEM_LOGP>
-4.5013489734732826

> <ALOGPS_LOGS>
-2.52

> <JCHEM_MDDR_LIKE_RULE>
0

> <JCHEM_NUMBER_OF_RINGS>
4

> <JCHEM_PHYSIOLOGICAL_CHARGE>
0

> <JCHEM_PKA>
7.957388085273197

> <JCHEM_PKA_STRONGEST_ACIDIC>
2.842774671640649

> <JCHEM_PKA_STRONGEST_BASIC>
7.413124695057921

> <JCHEM_POLAR_SURFACE_AREA>
201.85

> <JCHEM_REFRACTIVITY>
115.39819999999997

> <JCHEM_ROTATABLE_BOND_COUNT>
2

> <JCHEM_RULE_OF_FIVE>
0

> <ALOGPS_SOLUBILITY>
1.40e+00 g/l

> <JCHEM_TRADITIONAL_IUPAC>
oxytetracycline

> <JCHEM_VEBER_RULE>
0

> <DRUGBANK_ID>
DB00595

> <SECONDARY_ACCESSION_NUMBERS>
APRD00019

> <DRUG_GROUPS>
approved; investigational; vet_approved

> <GENERIC_NAME>
Oxytetracycline

> <SYNONYMS>
5-Hydroxytetracycline; Embryostat; Hydroxytetracyclinum; Mepatar; Ossitetraciclina; Oxitetraciclina; Oxyterracin; Oxyterracine; Oxytetracyclin; Oxytétracycline; Oxytetracycline; Oxytetracycline (anhydrous); Oxytetracycline amphoteric; Oxytetracyclinum

> <PRODUCTS>
Terra-Cortril; Terramycin; Urobiotic

> <INTERNATIONAL_BRANDS>
Adamycin; Anglocycline; Corsamycin; Oxacin; Oxypan; Oxyterracyna; Terrados; Tetran; Tetrasona

> <SALTS>
Oxytetracycline calcium; Oxytetracycline dihydrate; Oxytetracycline hydrochloride; Oxytetracycline monocalcium

$$$$
8982
  -OEChem-02062018103D

 51 54  0     1  0  0  0  0  0999 V2000
    2.2171    1.3192    1.6253 S   0  0  0  0  0  0  0  0  0  0  0  0
    1.9425   -0.7338   -2.2392 O   0  0  0  0  0  0  0  0  0  0  0  0
    6.3138   -0.2082    0.1178 O   0  0  0  0  0  0  0  0  0  0  0  0
    5.3783    1.8650   -0.0319 O   0  0  0  0  0  0  0  0  0  0  0  0
   -1.0746   -0.0053   -2.2441 O   0  0  0  0  0  0  0  0  0  0  0  0
   -1.0929   -2.3036    0.1222 O   0  0  0  0  0  0  0  0  0  0  0  0
    3.0975    0.7044   -0.7686 N   0  0  0  0  0  0  0  0  0  0  0  0
   -0.0644    0.8860   -0.3578 N   0  0  0  0  0  0  0  0  0  0  0  0
    2.3341    1.7852   -0.1432 C   0  0  1  0  0  0  0  0  0  0  0  0
    3.2793   -0.1981    1.4412 C   0  0  0  0  0  0  0  0  0  0  0  0
    3.9681   -0.0959    0.0618 C   0  0  2  0  0  0  0  0  0  0  0  0
    1.1490    1.3695   -1.0302 C   0  0  1  0  0  0  0  0  0  0  0  0
    2.0720    0.2466   -1.5422 C   0  0  0  0  0  0  0  0  0  0  0  0
    4.2571   -0.2713    2.6184 C   0  0  0  0  0  0  0  0  0  0  0  0
    2.3462   -1.4197    1.4926 C   0  0  0  0  0  0  0  0  0  0  0  0
    5.2676    0.6504    0.0429 C   0  0  0  0  0  0  0  0  0  0  0  0
   -1.0900    0.2278   -1.0382 C   0  0  0  0  0  0  0  0  0  0  0  0
   -2.2457   -0.2233   -0.2224 C   0  0  0  0  0  0  0  0  0  0  0  0
   -3.3453    0.6084   -0.0235 C   0  0  0  0  0  0  0  0  0  0  0  0
   -2.1735   -1.4957    0.3197 C   0  0  0  0  0  0  0  0  0  0  0  0
   -4.4214    0.1291    0.7610 C   0  0  0  0  0  0  0  0  0  0  0  0
   -3.2315   -1.9670    1.0910 C   0  0  0  0  0  0  0  0  0  0  0  0
   -3.4179    1.8985   -0.5737 C   0  0  0  0  0  0  0  0  0  0  0  0
   -4.3489   -1.1610    1.3111 C   0  0  0  0  0  0  0  0  0  0  0  0
   -5.5382    0.9539    0.9721 C   0  0  0  0  0  0  0  0  0  0  0  0
   -4.5351    2.7044   -0.3537 C   0  0  0  0  0  0  0  0  0  0  0  0
   -5.5933    2.2331    0.4177 C   0  0  0  0  0  0  0  0  0  0  0  0
   -1.3287   -3.5528   -0.5230 C   0  0  0  0  0  0  0  0  0  0  0  0
   -0.1214   -3.9458   -1.3030 C   0  0  0  0  0  0  0  0  0  0  0  0
    2.7456    2.7789   -0.3416 H   0  0  0  0  0  0  0  0  0  0  0  0
    4.0976   -1.0767   -0.4108 H   0  0  0  0  0  0  0  0  0  0  0  0
    0.9078    2.1040   -1.8079 H   0  0  0  0  0  0  0  0  0  0  0  0
    3.7286   -0.3814    3.5730 H   0  0  0  0  0  0  0  0  0  0  0  0
    4.9222   -1.1364    2.5157 H   0  0  0  0  0  0  0  0  0  0  0  0
    4.8848    0.6235    2.6954 H   0  0  0  0  0  0  0  0  0  0  0  0
    2.9232   -2.3465    1.3899 H   0  0  0  0  0  0  0  0  0  0  0  0
    1.8069   -1.4784    2.4455 H   0  0  0  0  0  0  0  0  0  0  0  0
    1.6029   -1.4147    0.6894 H   0  0  0  0  0  0  0  0  0  0  0  0
   -0.1747    1.0257    0.6439 H   0  0  0  0  0  0  0  0  0  0  0  0
    7.1748    0.2617    0.1074 H   0  0  0  0  0  0  0  0  0  0  0  0
   -3.1994   -2.9573    1.5373 H   0  0  0  0  0  0  0  0  0  0  0  0
   -2.6153    2.3063   -1.1833 H   0  0  0  0  0  0  0  0  0  0  0  0
   -5.1636   -1.5492    1.9190 H   0  0  0  0  0  0  0  0  0  0  0  0
   -6.3769    0.6062    1.5717 H   0  0  0  0  0  0  0  0  0  0  0  0
   -4.5791    3.7003   -0.7850 H   0  0  0  0  0  0  0  0  0  0  0  0
   -6.4629    2.8610    0.5884 H   0  0  0  0  0  0  0  0  0  0  0  0
   -1.5428   -4.3075    0.2417 H   0  0  0  0  0  0  0  0  0  0  0  0
   -2.1915   -3.4879   -1.1980 H   0  0  0  0  0  0  0  0  0  0  0  0
   -0.2646   -4.9115   -1.7961 H   0  0  0  0  0  0  0  0  0  0  0  0
    0.1097   -3.1957   -2.0670 H   0  0  0  0  0  0  0  0  0  0  0  0
    0.7587   -4.0124   -0.6544 H   0  0  0  0  0  0  0  0  0  0  0  0
  1  9  1  0  0  0  0
  1 10  1  0  0  0  0
  2 13  2  0  0  0  0
  3 16  1  0  0  0  0
  3 40  1  0  0  0  0
  4 16  2  0  0  0  0
  5 17  2  0  0  0  0
  6 20  1  0  0  0  0
  6 28  1  0  0  0  0
  7  9  1  0  0  0  0
  7 11  1  0  0  0  0
  7 13  1  0  0  0  0
  8 12  1  0  0  0  0
  8 17  1  0  0  0  0
  8 39  1  0  0  0  0
  9 12  1  0  0  0  0
  9 30  1  0  0  0  0
 10 11  1  0  0  0  0
 10 14  1  0  0  0  0
 10 15  1  0  0  0  0
 11 16  1  0  0  0  0
 11 31  1  0  0  0  0
 12 13  1  0  0  0  0
 12 32  1  0  0  0  0
 14 33  1  0  0  0  0
 14 34  1  0  0  0  0
 14 35  1  0  0  0  0
 15 36  1  0  0  0  0
 15 37  1  0  0  0  0
 15 38  1  0  0  0  0
 17 18  1  0  0  0  0
 18 19  1  0  0  0  0
 18 20  2  0  0  0  0
 19 21  1  0  0  0  0
 19 23  2  0  0  0  0
 20 22  1  0  0  0  0
 21 24  1  0  0  0  0
 21 25  2  0  0  0  0
 22 24  2  0  0  0  0
 22 41  1  0  0  0  0
 23 26  1  0  0  0  0
 23 42  1  0  0  0  0
 24 43  1  0  0  0  0
 25 27  1  0  0  0  0
 25 44  1  0  0  0  0
 26 27  2  0  0  0  0
 26 45  1  0  0  0  0
 27 46  1  0  0  0  0
 28 29  1  0  0  0  0
 28 47  1  0  0  0  0
 28 48  1  0  0  0  0
 29 49  1  0  0  0  0
 29 50  1  0  0  0  0
 29 51  1  0  0  0  0
M  END
> <DATABASE_ID>
DB00607

> <DATABASE_NAME>
drugbank

> <ORIGINAL_SOURCE>
PUBCHEM

> <ORIGINAL_SOURCE_URL>
https://pubchem.ncbi.nlm.nih.gov/rest/pug/compound/inchikey/GPXLMGHLHQJAGZ-JTDSTZFVSA-N/SDF?record_type=3d

> <SMILES>
[H][C@]12SC(C)(C)[C@@H](N1C(=O)[C@H]2NC(=O)C1=C(OCC)C=CC2=CC=CC=C12)C(O)=O

> <INCHI_IDENTIFIER>
InChI=1S/C21H22N2O5S/c1-4-28-13-10-9-11-7-5-6-8-12(11)14(13)17(24)22-15-18(25)23-16(20(26)27)21(2,3)29-19(15)23/h5-10,15-16,19H,4H2,1-3H3,(H,22,24)(H,26,27)/t15-,16+,19-/m1/s1

> <INCHI_KEY>
GPXLMGHLHQJAGZ-JTDSTZFVSA-N

> <FORMULA>
C21H22N2O5S

> <MOLECULAR_WEIGHT>
414.475

> <EXACT_MASS>
414.124942514

> <JCHEM_ACCEPTOR_COUNT>
5

> <JCHEM_ATOM_COUNT>
51

> <JCHEM_AVERAGE_NEUTRAL_MICROSPECIES_CHARGE>
-0.9997962657360288

> <JCHEM_AVERAGE_POLARIZABILITY>
42.22398600842352

> <JCHEM_BIOAVAILABILITY>
1

> <JCHEM_DONOR_COUNT>
2

> <JCHEM_FORMAL_CHARGE>
0

> <JCHEM_GHOSE_FILTER>
1

> <JCHEM_IUPAC>
(2S,5R,6R)-6-(2-ethoxynaphthalene-1-amido)-3,3-dimethyl-7-oxo-4-thia-1-azabicyclo[3.2.0]heptane-2-carboxylic acid

> <ALOGPS_LOGP>
3.21

> <JCHEM_LOGP>
2.2891260173333334

> <ALOGPS_LOGS>
-4.38

> <JCHEM_MDDR_LIKE_RULE>
0

> <JCHEM_NEUTRAL_CHARGE>
-1

> <JCHEM_NUMBER_OF_RINGS>
4

> <JCHEM_PHYSIOLOGICAL_CHARGE>
-1

> <JCHEM_PKA>
13.984842945392675

> <JCHEM_PKA_STRONGEST_ACIDIC>
3.3094089455406515

> <JCHEM_PKA_STRONGEST_BASIC>
-1.8757405625251076

> <JCHEM_POLAR_SURFACE_AREA>
95.94

> <JCHEM_REFRACTIVITY>
108.13840000000002

> <JCHEM_ROTATABLE_BOND_COUNT>
5

> <JCHEM_RULE_OF_FIVE>
1

> <ALOGPS_SOLUBILITY>
1.72e-02 g/l

> <JCHEM_TRADITIONAL_IUPAC>
cefazolin sodium

> <JCHEM_VEBER_RULE>
0

$$$$

  Mrv0541 04191212132D          

 34 37  0  0  1  0            999 V2000
    9.1461   -3.4366    0.0000 C   0  0  0  0  0  0  0  0  0  0  0  0
    7.7172   -5.9117    0.0000 N   0  0  0  0  0  0  0  0  0  0  0  0
    7.0027   -4.6741    0.0000 C   0  0  2  0  0  0  0  0  0  0  0  0
    7.0027   -3.8491    0.0000 C   0  0  2  0  0  0  0  0  0  0  0  0
    7.7172   -5.0866    0.0000 C   0  0  1  0  0  0  0  0  0  0  0  0
    6.2882   -5.0866    0.0000 C   0  0  0  0  0  0  0  0  0  0  0  0
    6.2882   -3.4366    0.0000 C   0  0  0  0  0  0  0  0  0  0  0  0
    7.7172   -3.4366    0.0000 C   0  0  0  0  0  0  0  0  0  0  0  0
    7.0027   -3.0241    0.0000 O   0  0  0  0  0  0  0  0  0  0  0  0
    8.4316   -4.6741    0.0000 C   0  0  0  0  0  0  0  0  0  0  0  0
    5.5737   -4.6741    0.0000 C   0  0  1  0  0  0  0  0  0  0  0  0
    5.5737   -3.8491    0.0000 C   0  0  0  0  0  0  0  0  0  0  0  0
    6.2882   -2.6116    0.0000 O   0  0  0  0  0  0  0  0  0  0  0  0
    8.4316   -3.8491    0.0000 C   0  0  0  0  0  0  0  0  0  0  0  0
    7.7172   -2.6116    0.0000 O   0  0  0  0  0  0  0  0  0  0  0  0
    9.1461   -5.0866    0.0000 O   0  0  0  0  0  0  0  0  0  0  0  0
    4.8592   -5.0866    0.0000 C   0  0  1  0  0  0  0  0  0  0  0  0
    4.8592   -3.4366    0.0000 C   0  0  0  0  0  0  0  0  0  0  0  0
    4.1447   -4.6741    0.0000 C   0  0  0  0  0  0  0  0  0  0  0  0
    4.8592   -5.9117    0.0000 O   0  0  0  0  0  0  0  0  0  0  0  0
    4.1447   -3.8491    0.0000 C   0  0  0  0  0  0  0  0  0  0  0  0
    4.8592   -2.6116    0.0000 O   0  0  0  0  0  0  0  0  0  0  0  0
    3.4303   -5.0866    0.0000 C   0  0  0  0  0  0  0  0  0  0  0  0
    3.4303   -3.4366    0.0000 C   0  0  0  0  0  0  0  0  0  0  0  0
    2.7158   -4.6741    0.0000 C   0  0  0  0  0  0  0  0  0  0  0  0
    3.4303   -5.9117    0.0000 Cl  0  0  0  0  0  0  0  0  0  0  0  0
    2.7158   -3.8491    0.0000 C   0  0  0  0  0  0  0  0  0  0  0  0
    3.4303   -2.6116    0.0000 O   0  0  0  0  0  0  0  0  0  0  0  0
    7.0027   -5.4992    0.0000 H   0  0  0  0  0  0  0  0  0  0  0  0
    5.5737   -5.4992    0.0000 H   0  0  0  0  0  0  0  0  0  0  0  0
    8.4316   -6.3242    0.0000 C   0  0  0  0  0  0  0  0  0  0  0  0
    7.0027   -6.3242    0.0000 C   0  0  0  0  0  0  0  0  0  0  0  0
    9.1461   -2.6116    0.0000 O   0  0  0  0  0  0  0  0  0  0  0  0
    9.8606   -3.8491    0.0000 N   0  0  0  0  0  0  0  0  0  0  0  0
 12 18  1  0  0  0  0
 17 19  1  0  0  0  0
 17 20  1  6  0  0  0
 18 21  1  0  0  0  0
 18 22  2  0  0  0  0
 19 23  1  0  0  0  0
 21 24  1  0  0  0  0
 23 25  2  0  0  0  0
 23 26  1  0  0  0  0
 24 27  2  0  0  0  0
 24 28  1  0  0  0  0
 10 14  2  0  0  0  0
 11 12  1  0  0  0  0
 19 21  2  0  0  0  0
 25 27  1  0  0  0  0
  3 29  1  1  0  0  0
 11 30  1  1  0  0  0
  3  4  1  0  0  0  0
  3  5  1  0  0  0  0
  3  6  1  0  0  0  0
  4  7  1  0  0  0  0
  4  8  1  0  0  0  0
  4  9  1  1  0  0  0
  5 10  1  0  0  0  0
  6 11  1  0  0  0  0
  7 12  2  0  0  0  0
  7 13  1  0  0  0  0
  8 14  1  0  0  0  0
  8 15  2  0  0  0  0
 10 16  1  0  0  0  0
 11 17  1  0  0  0  0
  5  2  1  1  0  0  0
 14  1  1  0  0  0  0
  2 31  1  0  0  0  0
  2 32  1  0  0  0  0
  1 33  2  0  0  0  0
  1 34  1  0  0  0  0
M  END
> <DATABASE_ID>
DB00618

> <DATABASE_NAME>
drugbank

> <SMILES>
[H][C@]12C[C@@]3([H])[C@H](N(C)C)C(O)=C(C(N)=O)C(=O)[C@@]3(O)C(O)=C1C(=O)C1=C([C@H]2O)C(Cl)=CC=C1O

> <INCHI_IDENTIFIER>
InChI=1S/C21H21ClN2O8/c1-24(2)14-7-5-6-10(16(27)12-9(25)4-3-8(22)11(12)15(6)26)18(29)21(7,32)19(30)13(17(14)28)20(23)31/h3-4,6-7,14-15,25-26,28-29,32H,5H2,1-2H3,(H2,23,31)/t6-,7-,14-,15-,21-/m0/s1

> <INCHI_KEY>
FMTDIUIBLCQGJB-SEYHBJAFSA-N

> <FORMULA>
C21H21ClN2O8

> <MOLECULAR_WEIGHT>
464.853

> <EXACT_MASS>
464.098643365

> <JCHEM_ACCEPTOR_COUNT>
9

> <JCHEM_AVERAGE_POLARIZABILITY>
43.79661192444991

> <JCHEM_BIOAVAILABILITY>
1

> <JCHEM_DONOR_COUNT>
6

> <JCHEM_FORMAL_CHARGE>
0

> <JCHEM_GHOSE_FILTER>
0

> <JCHEM_IUPAC>
(4S,4aS,5aS,6S,12aS)-7-chloro-4-(dimethylamino)-3,6,10,12,12a-pentahydroxy-1,11-dioxo-1,4,4a,5,5a,6,11,12a-octahydrotetracene-2-carboxamide

> <ALOGPS_LOGP>
-0.40

> <JCHEM_LOGP>
-3.234198232678034

> <ALOGPS_LOGS>
-2.94

> <JCHEM_MDDR_LIKE_RULE>
0

> <JCHEM_NUMBER_OF_RINGS>
4

> <JCHEM_PHYSIOLOGICAL_CHARGE>
-1

> <JCHEM_PKA>
4.345393447608253

> <JCHEM_PKA_STRONGEST_ACIDIC>
-2.5592184196272365

> <JCHEM_PKA_STRONGEST_BASIC>
8.230179346707681

> <JCHEM_POLAR_SURFACE_AREA>
181.62

> <JCHEM_REFRACTIVITY>
114.35489999999994

> <JCHEM_ROTATABLE_BOND_COUNT>
2

> <JCHEM_RULE_OF_FIVE>
0

> <ALOGPS_SOLUBILITY>
5.30e-01 g/l

> <JCHEM_TRADITIONAL_IUPAC>
demeclocycline

> <JCHEM_VEBER_RULE>
0

> <DRUGBANK_ID>
DB00618

> <SECONDARY_ACCESSION_NUMBERS>
APRD00272

> <DRUG_GROUPS>
approved

> <GENERIC_NAME>
Demeclocycline

> <SYNONYMS>
[4S-(4α,4aα,5aα,6β,12aα)]-7-chloro-4-(dimethylamino)1,4,4a,5,5a,6,11,12a-octahydro-3,6,10,12,12a-pentahydroxy-1,11-dioxo-2-naphthacenecarboxamide; 6-demethyl-7-chlorotetracycline; 7-chloro-6-demethyltetracycline; Demeclociclina; Demeclocycline; Demeclocyclinum; Demethylchlortetracyclin; Demethylchlortetracycline; DMCT; DMCTC

> <PRODUCTS>
Declomycin; Declomycin - Tab 300mg; Declomycin Tab 150mg; Declomycin Tab 300mg; Demeclocycline Hydrochloride

> <INTERNATIONAL_BRANDS>
Declostatin; Ledermycin

> <SALTS>
Demeclocycline hydrochloride

$$$$
5320
  -OEChem-10051719193D

 24 24  0     0  0  0  0  0  0999 V2000
    1.1675   -1.2750   -0.2485 S   0  0  0  0  0  0  0  0  0  0  0  0
    1.1709   -2.5850    0.3893 O   0  0  0  0  0  0  0  0  0  0  0  0
    1.5888   -1.1505   -1.6372 O   0  0  0  0  0  0  0  0  0  0  0  0
    2.4302    1.5112   -0.8735 O   0  0  0  0  0  0  0  0  0  0  0  0
    2.0936   -0.1934    0.7062 N   0  0  0  0  0  0  0  0  0  0  0  0
   -4.2760    1.0753    0.2018 N   0  0  0  0  0  0  0  0  0  0  0  0
   -0.4309   -0.5850   -0.1165 C   0  0  0  0  0  0  0  0  0  0  0  0
   -1.2820   -0.9888    0.9123 C   0  0  0  0  0  0  0  0  0  0  0  0
   -0.8569    0.3700   -1.0398 C   0  0  0  0  0  0  0  0  0  0  0  0
   -2.9850    0.5171    0.0947 C   0  0  0  0  0  0  0  0  0  0  0  0
   -2.5591   -0.4378    1.0178 C   0  0  0  0  0  0  0  0  0  0  0  0
   -2.1340    0.9211   -0.9341 C   0  0  0  0  0  0  0  0  0  0  0  0
    2.6228    1.0545    0.2477 C   0  0  0  0  0  0  0  0  0  0  0  0
    3.4502    1.7662    1.2796 C   0  0  0  0  0  0  0  0  0  0  0  0
   -0.9680   -1.7262    1.6456 H   0  0  0  0  0  0  0  0  0  0  0  0
   -0.2110    0.7034   -1.8470 H   0  0  0  0  0  0  0  0  0  0  0  0
    2.3319   -0.5044    1.6570 H   0  0  0  0  0  0  0  0  0  0  0  0
   -3.2125   -0.7595    1.8248 H   0  0  0  0  0  0  0  0  0  0  0  0
   -2.4540    1.6654   -1.6589 H   0  0  0  0  0  0  0  0  0  0  0  0
    4.3038    1.1441    1.5614 H   0  0  0  0  0  0  0  0  0  0  0  0
    3.8190    2.7105    0.8697 H   0  0  0  0  0  0  0  0  0  0  0  0
    2.8390    1.9770    2.1612 H   0  0  0  0  0  0  0  0  0  0  0  0
   -4.8942    0.7818    0.9465 H   0  0  0  0  0  0  0  0  0  0  0  0
   -4.5857    1.7666   -0.4682 H   0  0  0  0  0  0  0  0  0  0  0  0
  1  2  2  0  0  0  0
  1  3  2  0  0  0  0
  1  5  1  0  0  0  0
  1  7  1  0  0  0  0
  4 13  2  0  0  0  0
  5 13  1  0  0  0  0
  5 17  1  0  0  0  0
  6 10  1  0  0  0  0
  6 23  1  0  0  0  0
  6 24  1  0  0  0  0
  7  8  2  0  0  0  0
  7  9  1  0  0  0  0
  8 11  1  0  0  0  0
  8 15  1  0  0  0  0
  9 12  2  0  0  0  0
  9 16  1  0  0  0  0
 10 11  2  0  0  0  0
 10 12  1  0  0  0  0
 11 18  1  0  0  0  0
 12 19  1  0  0  0  0
 13 14  1  0  0  0  0
 14 20  1  0  0  0  0
 14 21  1  0  0  0  0
 14 22  1  0  0  0  0
M  END
> <DATABASE_ID>
DB00634

> <DATABASE_NAME>
drugbank

> <ORIGINAL_SOURCE>
PUBCHEM

> <ORIGINAL_SOURCE_URL>
https://pubchem.ncbi.nlm.nih.gov/rest/pug/compound/inchikey/SKIVFJLNDNKQPD-UHFFFAOYSA-N/SDF?record_type=3d

> <SMILES>
CC(=O)NS(=O)(=O)C1=CC=C(N)C=C1

> <INCHI_IDENTIFIER>
InChI=1S/C8H10N2O3S/c1-6(11)10-14(12,13)8-4-2-7(9)3-5-8/h2-5H,9H2,1H3,(H,10,11)

> <INCHI_KEY>
SKIVFJLNDNKQPD-UHFFFAOYSA-N

> <FORMULA>
C8H10N2O3S

> <MOLECULAR_WEIGHT>
214.242

> <EXACT_MASS>
214.041212886

> <JCHEM_ACCEPTOR_COUNT>
4

> <JCHEM_AVERAGE_POLARIZABILITY>
20.491204809580424

> <JCHEM_BIOAVAILABILITY>
1

> <JCHEM_DONOR_COUNT>
2

> <JCHEM_FORMAL_CHARGE>
0

> <JCHEM_GHOSE_FILTER>
1

> <JCHEM_IUPAC>
N-(4-aminobenzenesulfonyl)acetamide

> <ALOGPS_LOGP>
0.15

> <JCHEM_LOGP>
-0.2610410626666669

> <ALOGPS_LOGS>
-1.71

> <JCHEM_MDDR_LIKE_RULE>
0

> <JCHEM_NUMBER_OF_RINGS>
1

> <JCHEM_PHYSIOLOGICAL_CHARGE>
-1

> <JCHEM_PKA_STRONGEST_ACIDIC>
4.299983698566216

> <JCHEM_PKA_STRONGEST_BASIC>
2.1375402711797

> <JCHEM_POLAR_SURFACE_AREA>
89.26

> <JCHEM_REFRACTIVITY>
52.482200000000006

> <JCHEM_ROTATABLE_BOND_COUNT>
1

> <JCHEM_RULE_OF_FIVE>
1

> <ALOGPS_SOLUBILITY>
4.21e+00 g/l

> <JCHEM_TRADITIONAL_IUPAC>
sulfacetamide

> <JCHEM_VEBER_RULE>
0

$$$$
36294
  -OEChem-10051719213D

 69 71  0     1  0  0  0  0  0999 V2000
   -1.2780    0.8560    0.4184 O   0  0  0  0  0  0  0  0  0  0  0  0
    1.3281    0.2231   -0.5590 O   0  0  0  0  0  0  0  0  0  0  0  0
    0.0859    3.4021   -1.8079 O   0  0  0  0  0  0  0  0  0  0  0  0
   -3.5805    0.5749   -0.0639 O   0  0  0  0  0  0  0  0  0  0  0  0
    3.4581   -0.6662   -1.0818 O   0  0  0  0  0  0  0  0  0  0  0  0
   -1.6948   -0.0750    2.9969 O   0  0  0  0  0  0  0  0  0  0  0  0
   -3.1878   -3.0625   -0.4942 O   0  0  0  0  0  0  0  0  0  0  0  0
    3.1270   -3.4409    1.3095 O   0  0  0  0  0  0  0  0  0  0  0  0
   -4.3429    0.4205   -2.6781 O   0  0  0  0  0  0  0  0  0  0  0  0
   -0.3178    4.3683    1.0215 N   0  0  0  0  0  0  0  0  0  0  0  0
    2.4682    3.6946   -0.0203 N   0  0  0  0  0  0  0  0  0  0  0  0
    0.0806   -1.8346   -2.1171 N   0  0  0  0  0  0  0  0  0  0  0  0
   -2.7581   -2.7574    2.3582 N   0  0  0  0  0  0  0  0  0  0  0  0
    5.6353   -0.0434    0.5943 N   0  0  0  0  0  0  0  0  0  0  0  0
   -0.9413    2.1904    0.0321 C   0  0  2  0  0  0  0  0  0  0  0  0
    1.4012    1.6212   -0.8467 C   0  0  1  0  0  0  0  0  0  0  0  0
   -0.0113    2.1218   -1.1918 C   0  0  2  0  0  0  0  0  0  0  0  0
   -0.3252    2.9211    1.2404 C   0  0  1  0  0  0  0  0  0  0  0  0
    2.0418    2.3457    0.3527 C   0  0  2  0  0  0  0  0  0  0  0  0
    1.0834    2.3833    1.5570 C   0  0  0  0  0  0  0  0  0  0  0  0
   -2.5997    0.7908    0.9511 C   0  0  1  0  0  0  0  0  0  0  0  0
    2.0923   -0.5365   -1.4931 C   0  0  1  0  0  0  0  0  0  0  0  0
   -2.6930   -0.3100    2.0099 C   0  0  1  0  0  0  0  0  0  0  0  0
    1.4766   -1.9276   -1.6992 C   0  0  1  0  0  0  0  0  0  0  0  0
   -2.5221   -1.6955    1.3730 C   0  0  2  0  0  0  0  0  0  0  0  0
   -3.5029   -1.8579    0.1998 C   0  0  1  0  0  0  0  0  0  0  0  0
   -3.4114   -0.6632   -0.7631 C   0  0  1  0  0  0  0  0  0  0  0  0
    1.5942   -2.7610   -0.4229 C   0  0  0  0  0  0  0  0  0  0  0  0
    3.0495   -2.7955    0.0445 C   0  0  1  0  0  0  0  0  0  0  0  0
    3.6207   -1.3769    0.1508 C   0  0  1  0  0  0  0  0  0  0  0  0
   -4.4884   -0.7139   -1.8438 C   0  0  0  0  0  0  0  0  0  0  0  0
    5.1122   -1.3959    0.4728 C   0  0  0  0  0  0  0  0  0  0  0  0
   -1.8522    2.7177   -0.2878 H   0  0  0  0  0  0  0  0  0  0  0  0
    2.0522    1.8062   -1.7130 H   0  0  0  0  0  0  0  0  0  0  0  0
   -0.4597    1.4385   -1.9243 H   0  0  0  0  0  0  0  0  0  0  0  0
   -0.9378    2.7391    2.1311 H   0  0  0  0  0  0  0  0  0  0  0  0
    2.9360    1.7920    0.6641 H   0  0  0  0  0  0  0  0  0  0  0  0
    1.5309    2.9612    2.3768 H   0  0  0  0  0  0  0  0  0  0  0  0
    0.9810    1.3606    1.9454 H   0  0  0  0  0  0  0  0  0  0  0  0
   -2.8535    1.7363    1.4465 H   0  0  0  0  0  0  0  0  0  0  0  0
    2.0978   -0.0502   -2.4776 H   0  0  0  0  0  0  0  0  0  0  0  0
   -3.6761   -0.2597    2.4964 H   0  0  0  0  0  0  0  0  0  0  0  0
    2.0432   -2.4419   -2.4866 H   0  0  0  0  0  0  0  0  0  0  0  0
   -1.4894   -1.8182    1.0224 H   0  0  0  0  0  0  0  0  0  0  0  0
   -4.5276   -1.9424    0.5838 H   0  0  0  0  0  0  0  0  0  0  0  0
   -2.4381   -0.6444   -1.2684 H   0  0  0  0  0  0  0  0  0  0  0  0
    1.2358   -3.7849   -0.5894 H   0  0  0  0  0  0  0  0  0  0  0  0
    0.9609   -2.3515    0.3758 H   0  0  0  0  0  0  0  0  0  0  0  0
   -1.2733    4.7026    0.9034 H   0  0  0  0  0  0  0  0  0  0  0  0
    0.0529    4.8382    1.8463 H   0  0  0  0  0  0  0  0  0  0  0  0
    3.1618    3.6426   -0.7652 H   0  0  0  0  0  0  0  0  0  0  0  0
    2.9288    4.1405    0.7718 H   0  0  0  0  0  0  0  0  0  0  0  0
    3.6392   -3.3780   -0.6743 H   0  0  0  0  0  0  0  0  0  0  0  0
    3.1064   -0.8313    0.9541 H   0  0  0  0  0  0  0  0  0  0  0  0
    0.6235    3.3032   -2.6120 H   0  0  0  0  0  0  0  0  0  0  0  0
   -5.4885   -0.6751   -1.3991 H   0  0  0  0  0  0  0  0  0  0  0  0
   -4.3987   -1.6171   -2.4549 H   0  0  0  0  0  0  0  0  0  0  0  0
    5.6629   -1.9055   -0.3264 H   0  0  0  0  0  0  0  0  0  0  0  0
    5.3005   -1.9338    1.4075 H   0  0  0  0  0  0  0  0  0  0  0  0
   -0.2862   -2.7668   -2.3038 H   0  0  0  0  0  0  0  0  0  0  0  0
    0.0172   -1.3174   -2.9928 H   0  0  0  0  0  0  0  0  0  0  0  0
   -2.5944   -3.6656    1.9255 H   0  0  0  0  0  0  0  0  0  0  0  0
   -2.0840   -2.6720    3.1178 H   0  0  0  0  0  0  0  0  0  0  0  0
   -1.8657    0.7995    3.3860 H   0  0  0  0  0  0  0  0  0  0  0  0
   -2.2861   -2.9773   -0.8483 H   0  0  0  0  0  0  0  0  0  0  0  0
    2.7573   -4.3343    1.2061 H   0  0  0  0  0  0  0  0  0  0  0  0
    6.6445   -0.0800    0.7310 H   0  0  0  0  0  0  0  0  0  0  0  0
    5.4812    0.4643   -0.2759 H   0  0  0  0  0  0  0  0  0  0  0  0
   -5.0385    0.3697   -3.3556 H   0  0  0  0  0  0  0  0  0  0  0  0
  1 15  1  0  0  0  0
  1 21  1  0  0  0  0
  2 16  1  0  0  0  0
  2 22  1  0  0  0  0
  3 17  1  0  0  0  0
  3 55  1  0  0  0  0
  4 21  1  0  0  0  0
  4 27  1  0  0  0  0
  5 22  1  0  0  0  0
  5 30  1  0  0  0  0
  6 23  1  0  0  0  0
  6 64  1  0  0  0  0
  7 26  1  0  0  0  0
  7 65  1  0  0  0  0
  8 29  1  0  0  0  0
  8 66  1  0  0  0  0
  9 31  1  0  0  0  0
  9 69  1  0  0  0  0
 10 18  1  0  0  0  0
 10 49  1  0  0  0  0
 10 50  1  0  0  0  0
 11 19  1  0  0  0  0
 11 51  1  0  0  0  0
 11 52  1  0  0  0  0
 12 24  1  0  0  0  0
 12 60  1  0  0  0  0
 12 61  1  0  0  0  0
 13 25  1  0  0  0  0
 13 62  1  0  0  0  0
 13 63  1  0  0  0  0
 14 32  1  0  0  0  0
 14 67  1  0  0  0  0
 14 68  1  0  0  0  0
 15 17  1  0  0  0  0
 15 18  1  0  0  0  0
 15 33  1  0  0  0  0
 16 17  1  0  0  0  0
 16 19  1  0  0  0  0
 16 34  1  0  0  0  0
 17 35  1  0  0  0  0
 18 20  1  0  0  0  0
 18 36  1  0  0  0  0
 19 20  1  0  0  0  0
 19 37  1  0  0  0  0
 20 38  1  0  0  0  0
 20 39  1  0  0  0  0
 21 23  1  0  0  0  0
 21 40  1  0  0  0  0
 22 24  1  0  0  0  0
 22 41  1  0  0  0  0
 23 25  1  0  0  0  0
 23 42  1  0  0  0  0
 24 28  1  0  0  0  0
 24 43  1  0  0  0  0
 25 26  1  0  0  0  0
 25 44  1  0  0  0  0
 26 27  1  0  0  0  0
 26 45  1  0  0  0  0
 27 31  1  0  0  0  0
 27 46  1  0  0  0  0
 28 29  1  0  0  0  0
 28 47  1  0  0  0  0
 28 48  1  0  0  0  0
 29 30  1  0  0  0  0
 29 53  1  0  0  0  0
 30 32  1  0  0  0  0
 30 54  1  0  0  0  0
 31 56  1  0  0  0  0
 31 57  1  0  0  0  0
 32 58  1  0  0  0  0
 32 59  1  0  0  0  0
M  END
> <DATABASE_ID>
DB00684

> <DATABASE_NAME>
drugbank

> <ORIGINAL_SOURCE>
PUBCHEM

> <ORIGINAL_SOURCE_URL>
https://pubchem.ncbi.nlm.nih.gov/rest/pug/compound/inchikey/NLVFBUXFDBBNBW-PBSUHMDJSA-N/SDF?record_type=3d

> <SMILES>
NC[C@H]1O[C@H](O[C@@H]2[C@@H](N)C[C@@H](N)[C@H](O[C@H]3O[C@H](CO)[C@@H](O)[C@H](N)[C@H]3O)[C@H]2O)[C@H](N)C[C@@H]1O

> <INCHI_IDENTIFIER>
InChI=1S/C18H37N5O9/c19-3-9-8(25)2-7(22)17(29-9)31-15-5(20)1-6(21)16(14(15)28)32-18-13(27)11(23)12(26)10(4-24)30-18/h5-18,24-28H,1-4,19-23H2/t5-,6+,7+,8-,9+,10+,11-,12+,13+,14-,15+,16-,17+,18+/m0/s1

> <INCHI_KEY>
NLVFBUXFDBBNBW-PBSUHMDJSA-N

> <FORMULA>
C18H37N5O9

> <MOLECULAR_WEIGHT>
467.5145

> <EXACT_MASS>
467.259127807

> <JCHEM_ACCEPTOR_COUNT>
14

> <JCHEM_AVERAGE_POLARIZABILITY>
47.182264548541966

> <JCHEM_BIOAVAILABILITY>
0

> <JCHEM_DONOR_COUNT>
10

> <JCHEM_FORMAL_CHARGE>
0

> <JCHEM_GHOSE_FILTER>
0

> <JCHEM_IUPAC>
(2S,3R,4S,5S,6R)-4-amino-2-{[(1S,2S,3R,4S,6R)-4,6-diamino-3-{[(2R,3R,5S,6R)-3-amino-6-(aminomethyl)-5-hydroxyoxan-2-yl]oxy}-2-hydroxycyclohexyl]oxy}-6-(hydroxymethyl)oxane-3,5-diol

> <ALOGPS_LOGP>
-2.98

> <JCHEM_LOGP>
-6.477500564666668

> <ALOGPS_LOGS>
-0.94

> <JCHEM_MDDR_LIKE_RULE>
1

> <JCHEM_NUMBER_OF_RINGS>
3

> <JCHEM_PHYSIOLOGICAL_CHARGE>
5

> <JCHEM_PKA>
13.132781993910879

> <JCHEM_PKA_STRONGEST_ACIDIC>
12.542545735150494

> <JCHEM_PKA_STRONGEST_BASIC>
9.826251293406527

> <JCHEM_POLAR_SURFACE_AREA>
268.16999999999996

> <JCHEM_REFRACTIVITY>
106.69489999999998

> <JCHEM_ROTATABLE_BOND_COUNT>
6

> <JCHEM_RULE_OF_FIVE>
0

> <ALOGPS_SOLUBILITY>
5.37e+01 g/l

> <JCHEM_TRADITIONAL_IUPAC>
tobramycin

> <JCHEM_VEBER_RULE>
0

$$$$
6196
  -OEChem-10051719213D

 47 50  0     1  0  0  0  0  0999 V2000
    1.6788    1.4919    0.3527 S   0  0  0  0  0  0  0  0  0  0  0  0
    1.7832   -2.7264   -0.8387 O   0  0  0  0  0  0  0  0  0  0  0  0
    5.9270   -0.3228    0.5727 O   0  0  0  0  0  0  0  0  0  0  0  0
    4.9512    0.9267   -1.0651 O   0  0  0  0  0  0  0  0  0  0  0  0
   -1.2134   -2.4582   -1.4958 O   0  0  0  0  0  0  0  0  0  0  0  0
   -4.2840   -1.7120    1.2969 O   0  0  0  0  0  0  0  0  0  0  0  0
    2.7720   -0.5847   -0.8205 N   0  0  0  0  0  0  0  0  0  0  0  0
   -0.4168   -0.4137   -0.7885 N   0  0  0  0  0  0  0  0  0  0  0  0
   -4.2350   -0.3278    1.1841 N   0  0  0  0  0  0  0  0  0  0  0  0
    1.9302    0.5509   -1.1996 C   0  0  1  0  0  0  0  0  0  0  0  0
    2.7935    0.3961    1.3632 C   0  0  0  0  0  0  0  0  0  0  0  0
    3.5919   -0.4710    0.3639 C   0  0  2  0  0  0  0  0  0  0  0  0
    0.8348   -0.4678   -1.5559 C   0  0  1  0  0  0  0  0  0  0  0  0
    1.8275   -1.5381   -1.0621 C   0  0  0  0  0  0  0  0  0  0  0  0
    3.6715    1.2696    2.2651 C   0  0  0  0  0  0  0  0  0  0  0  0
    1.8931   -0.4839    2.2465 C   0  0  0  0  0  0  0  0  0  0  0  0
    4.8677    0.1332   -0.1393 C   0  0  0  0  0  0  0  0  0  0  0  0
   -1.3677   -1.4413   -0.8201 C   0  0  0  0  0  0  0  0  0  0  0  0
   -2.5547   -1.2551    0.0251 C   0  0  0  0  0  0  0  0  0  0  0  0
   -3.1763   -0.0816    0.4073 C   0  0  0  0  0  0  0  0  0  0  0  0
   -3.2605   -2.2557    0.5899 C   0  0  0  0  0  0  0  0  0  0  0  0
   -2.8196    1.2728    0.0740 C   0  0  0  0  0  0  0  0  0  0  0  0
   -3.1673   -3.7220    0.6045 C   0  0  0  0  0  0  0  0  0  0  0  0
   -3.3531    1.8711   -1.0653 C   0  0  0  0  0  0  0  0  0  0  0  0
   -1.9419    1.9800    0.8925 C   0  0  0  0  0  0  0  0  0  0  0  0
   -3.0073    3.1834   -1.3877 C   0  0  0  0  0  0  0  0  0  0  0  0
   -1.5960    3.2924    0.5701 C   0  0  0  0  0  0  0  0  0  0  0  0
   -2.1287    3.8941   -0.5699 C   0  0  0  0  0  0  0  0  0  0  0  0
    2.3293    1.1267   -2.0393 H   0  0  0  0  0  0  0  0  0  0  0  0
    3.7870   -1.4776    0.7519 H   0  0  0  0  0  0  0  0  0  0  0  0
    0.6396   -0.5386   -2.6326 H   0  0  0  0  0  0  0  0  0  0  0  0
    3.0685    1.8388    2.9827 H   0  0  0  0  0  0  0  0  0  0  0  0
    4.3659    0.6511    2.8453 H   0  0  0  0  0  0  0  0  0  0  0  0
    4.2663    1.9920    1.6950 H   0  0  0  0  0  0  0  0  0  0  0  0
    2.5016   -1.1552    2.8640 H   0  0  0  0  0  0  0  0  0  0  0  0
    1.2829    0.1193    2.9296 H   0  0  0  0  0  0  0  0  0  0  0  0
    1.2133   -1.1124    1.6622 H   0  0  0  0  0  0  0  0  0  0  0  0
   -0.5373    0.3477   -0.1341 H   0  0  0  0  0  0  0  0  0  0  0  0
    6.7727    0.0621    0.2584 H   0  0  0  0  0  0  0  0  0  0  0  0
   -3.8263   -4.1575    1.3626 H   0  0  0  0  0  0  0  0  0  0  0  0
   -3.4533   -4.1334   -0.3683 H   0  0  0  0  0  0  0  0  0  0  0  0
   -2.1451   -4.0436    0.8272 H   0  0  0  0  0  0  0  0  0  0  0  0
   -4.0386    1.3303   -1.7133 H   0  0  0  0  0  0  0  0  0  0  0  0
   -1.5228    1.5275    1.7882 H   0  0  0  0  0  0  0  0  0  0  0  0
   -3.4218    3.6519   -2.2755 H   0  0  0  0  0  0  0  0  0  0  0  0
   -0.9142    3.8470    1.2082 H   0  0  0  0  0  0  0  0  0  0  0  0
   -1.8596    4.9160   -0.8207 H   0  0  0  0  0  0  0  0  0  0  0  0
  1 10  1  0  0  0  0
  1 11  1  0  0  0  0
  2 14  2  0  0  0  0
  3 17  1  0  0  0  0
  3 39  1  0  0  0  0
  4 17  2  0  0  0  0
  5 18  2  0  0  0  0
  6  9  1  0  0  0  0
  6 21  1  0  0  0  0
  7 10  1  0  0  0  0
  7 12  1  0  0  0  0
  7 14  1  0  0  0  0
  8 13  1  0  0  0  0
  8 18  1  0  0  0  0
  8 38  1  0  0  0  0
  9 20  2  0  0  0  0
 10 13  1  0  0  0  0
 10 29  1  0  0  0  0
 11 12  1  0  0  0  0
 11 15  1  0  0  0  0
 11 16  1  0  0  0  0
 12 17  1  0  0  0  0
 12 30  1  0  0  0  0
 13 14  1  0  0  0  0
 13 31  1  0  0  0  0
 15 32  1  0  0  0  0
 15 33  1  0  0  0  0
 15 34  1  0  0  0  0
 16 35  1  0  0  0  0
 16 36  1  0  0  0  0
 16 37  1  0  0  0  0
 18 19  1  0  0  0  0
 19 20  1  0  0  0  0
 19 21  2  0  0  0  0
 20 22  1  0  0  0  0
 21 23  1  0  0  0  0
 22 24  2  0  0  0  0
 22 25  1  0  0  0  0
 23 40  1  0  0  0  0
 23 41  1  0  0  0  0
 23 42  1  0  0  0  0
 24 26  1  0  0  0  0
 24 43  1  0  0  0  0
 25 27  2  0  0  0  0
 25 44  1  0  0  0  0
 26 28  2  0  0  0  0
 26 45  1  0  0  0  0
 27 28  1  0  0  0  0
 27 46  1  0  0  0  0
 28 47  1  0  0  0  0
M  END
> <DATABASE_ID>
DB00713

> <DATABASE_NAME>
drugbank

> <ORIGINAL_SOURCE>
PUBCHEM

> <ORIGINAL_SOURCE_URL>
https://pubchem.ncbi.nlm.nih.gov/rest/pug/compound/inchikey/UWYHMGVUTGAWSP-JKIFEVAISA-N/SDF?record_type=3d

> <SMILES>
[H][C@]12SC(C)(C)[C@@H](N1C(=O)[C@H]2NC(=O)C1=C(C)ON=C1C1=CC=CC=C1)C(O)=O

> <INCHI_IDENTIFIER>
InChI=1S/C19H19N3O5S/c1-9-11(12(21-27-9)10-7-5-4-6-8-10)15(23)20-13-16(24)22-14(18(25)26)19(2,3)28-17(13)22/h4-8,13-14,17H,1-3H3,(H,20,23)(H,25,26)/t13-,14+,17-/m1/s1

> <INCHI_KEY>
UWYHMGVUTGAWSP-JKIFEVAISA-N

> <FORMULA>
C19H19N3O5S

> <MOLECULAR_WEIGHT>
401.436

> <EXACT_MASS>
401.104541423

> <JCHEM_ACCEPTOR_COUNT>
5

> <JCHEM_AVERAGE_POLARIZABILITY>
39.60884583075184

> <JCHEM_BIOAVAILABILITY>
1

> <JCHEM_DONOR_COUNT>
2

> <JCHEM_FORMAL_CHARGE>
0

> <JCHEM_GHOSE_FILTER>
1

> <JCHEM_IUPAC>
(2S,5R,6R)-3,3-dimethyl-6-(5-methyl-3-phenyl-1,2-oxazole-4-amido)-7-oxo-4-thia-1-azabicyclo[3.2.0]heptane-2-carboxylic acid

> <ALOGPS_LOGP>
2.05

> <JCHEM_LOGP>
1.6976949820000002

> <ALOGPS_LOGS>
-3.67

> <JCHEM_MDDR_LIKE_RULE>
0

> <JCHEM_NUMBER_OF_RINGS>
4

> <JCHEM_PHYSIOLOGICAL_CHARGE>
-1

> <JCHEM_PKA>
13.650808618295354

> <JCHEM_PKA_STRONGEST_ACIDIC>
3.750966590256605

> <JCHEM_PKA_STRONGEST_BASIC>
-0.11723067800138864

> <JCHEM_POLAR_SURFACE_AREA>
112.74

> <JCHEM_REFRACTIVITY>
101.83230000000002

> <JCHEM_ROTATABLE_BOND_COUNT>
4

> <JCHEM_RULE_OF_FIVE>
1

> <ALOGPS_SOLUBILITY>
8.62e-02 g/l

> <JCHEM_TRADITIONAL_IUPAC>
oxacillin

> <JCHEM_VEBER_RULE>
0

$$$$
443387
  -OEChem-10051719223D

 50 53  0     1  0  0  0  0  0999 V2000
   -0.9884   -0.3890   -1.6805 S   0  0  0  0  0  0  0  0  0  0  0  0
   -1.8373    1.4240    2.2443 O   0  0  0  0  0  0  0  0  0  0  0  0
    0.3824   -0.1769    1.3716 O   0  0  0  0  0  0  0  0  0  0  0  0
   -4.5167   -2.2661    0.8752 O   0  0  0  0  0  0  0  0  0  0  0  0
   -5.0346   -0.0505    0.7373 O   0  0  0  0  0  0  0  0  0  0  0  0
   -2.5375    0.6211    0.1383 N   0  0  0  0  0  0  0  0  0  0  0  0
    0.4433    1.7382    0.0142 N   0  0  0  0  0  0  0  0  0  0  0  0
    2.6919    1.7635   -0.4536 N   0  0  0  0  0  0  0  0  0  0  0  0
   -1.8212    1.1108   -1.0432 C   0  0  1  0  0  0  0  0  0  0  0  0
   -1.0066    2.0052   -0.0986 C   0  0  1  0  0  0  0  0  0  0  0  0
   -2.7876   -0.8000    0.2701 C   0  0  2  0  0  0  0  0  0  0  0  0
   -2.3724   -1.4689   -1.0579 C   0  0  0  0  0  0  0  0  0  0  0  0
   -1.8479    1.3852    1.0348 C   0  0  0  0  0  0  0  0  0  0  0  0
    1.4700    2.5725   -0.5727 C   0  0  0  0  0  0  0  0  0  0  0  0
    0.9834    0.6819    0.7428 C   0  0  0  0  0  0  0  0  0  0  0  0
    2.4859    0.8083    0.6418 C   0  0  1  0  0  0  0  0  0  0  0  0
   -3.4709   -1.4933   -2.1295 C   0  0  0  0  0  0  0  0  0  0  0  0
   -1.8348   -2.8823   -0.8263 C   0  0  0  0  0  0  0  0  0  0  0  0
   -4.2260   -0.9622    0.6455 C   0  0  0  0  0  0  0  0  0  0  0  0
    1.2255    2.8430   -2.0591 C   0  0  0  0  0  0  0  0  0  0  0  0
    1.6278    3.8885    0.2000 C   0  0  0  0  0  0  0  0  0  0  0  0
    3.1827   -0.5063    0.3957 C   0  0  0  0  0  0  0  0  0  0  0  0
    3.6012   -1.2911    1.4730 C   0  0  0  0  0  0  0  0  0  0  0  0
    3.4124   -0.9451   -0.9107 C   0  0  0  0  0  0  0  0  0  0  0  0
    4.2455   -2.5072    1.2455 C   0  0  0  0  0  0  0  0  0  0  0  0
    4.0567   -2.1612   -1.1381 C   0  0  0  0  0  0  0  0  0  0  0  0
    4.4733   -2.9422   -0.0599 C   0  0  0  0  0  0  0  0  0  0  0  0
   -2.4737    1.6300   -1.7509 H   0  0  0  0  0  0  0  0  0  0  0  0
   -1.2176    3.0745   -0.2181 H   0  0  0  0  0  0  0  0  0  0  0  0
   -2.1832   -1.1608    1.1128 H   0  0  0  0  0  0  0  0  0  0  0  0
    2.8434    1.2605    1.5759 H   0  0  0  0  0  0  0  0  0  0  0  0
    3.5162    2.3378   -0.2867 H   0  0  0  0  0  0  0  0  0  0  0  0
   -4.2874   -2.1666   -1.8456 H   0  0  0  0  0  0  0  0  0  0  0  0
   -3.9089   -0.5029   -2.2972 H   0  0  0  0  0  0  0  0  0  0  0  0
   -3.0852   -1.8559   -3.0899 H   0  0  0  0  0  0  0  0  0  0  0  0
   -1.4525   -3.3237   -1.7543 H   0  0  0  0  0  0  0  0  0  0  0  0
   -1.0209   -2.8930   -0.0920 H   0  0  0  0  0  0  0  0  0  0  0  0
   -2.6199   -3.5482   -0.4528 H   0  0  0  0  0  0  0  0  0  0  0  0
    1.1274    1.9114   -2.6284 H   0  0  0  0  0  0  0  0  0  0  0  0
    0.3041    3.4157   -2.2132 H   0  0  0  0  0  0  0  0  0  0  0  0
    2.0486    3.4172   -2.5003 H   0  0  0  0  0  0  0  0  0  0  0  0
    2.4587    4.4859   -0.1925 H   0  0  0  0  0  0  0  0  0  0  0  0
    0.7198    4.4977    0.1298 H   0  0  0  0  0  0  0  0  0  0  0  0
    1.8142    3.7116    1.2659 H   0  0  0  0  0  0  0  0  0  0  0  0
   -5.4573   -2.3938    1.1223 H   0  0  0  0  0  0  0  0  0  0  0  0
    3.4279   -0.9641    2.4949 H   0  0  0  0  0  0  0  0  0  0  0  0
    3.0859   -0.3723   -1.7742 H   0  0  0  0  0  0  0  0  0  0  0  0
    4.5691   -3.1157    2.0849 H   0  0  0  0  0  0  0  0  0  0  0  0
    4.2302   -2.5025   -2.1544 H   0  0  0  0  0  0  0  0  0  0  0  0
    4.9738   -3.8896   -0.2371 H   0  0  0  0  0  0  0  0  0  0  0  0
  1  9  1  0  0  0  0
  1 12  1  0  0  0  0
  2 13  2  0  0  0  0
  3 15  2  0  0  0  0
  4 19  1  0  0  0  0
  4 45  1  0  0  0  0
  5 19  2  0  0  0  0
  6  9  1  0  0  0  0
  6 11  1  0  0  0  0
  6 13  1  0  0  0  0
  7 10  1  0  0  0  0
  7 14  1  0  0  0  0
  7 15  1  0  0  0  0
  8 14  1  0  0  0  0
  8 16  1  0  0  0  0
  8 32  1  0  0  0  0
  9 10  1  0  0  0  0
  9 28  1  0  0  0  0
 10 13  1  0  0  0  0
 10 29  1  0  0  0  0
 11 12  1  0  0  0  0
 11 19  1  0  0  0  0
 11 30  1  0  0  0  0
 12 17  1  0  0  0  0
 12 18  1  0  0  0  0
 14 20  1  0  0  0  0
 14 21  1  0  0  0  0
 15 16  1  0  0  0  0
 16 22  1  0  0  0  0
 16 31  1  0  0  0  0
 17 33  1  0  0  0  0
 17 34  1  0  0  0  0
 17 35  1  0  0  0  0
 18 36  1  0  0  0  0
 18 37  1  0  0  0  0
 18 38  1  0  0  0  0
 20 39  1  0  0  0  0
 20 40  1  0  0  0  0
 20 41  1  0  0  0  0
 21 42  1  0  0  0  0
 21 43  1  0  0  0  0
 21 44  1  0  0  0  0
 22 23  2  0  0  0  0
 22 24  1  0  0  0  0
 23 25  1  0  0  0  0
 23 46  1  0  0  0  0
 24 26  2  0  0  0  0
 24 47  1  0  0  0  0
 25 27  2  0  0  0  0
 25 48  1  0  0  0  0
 26 27  1  0  0  0  0
 26 49  1  0  0  0  0
 27 50  1  0  0  0  0
M  END
> <DATABASE_ID>
DB00739

> <DATABASE_NAME>
drugbank

> <ORIGINAL_SOURCE>
PUBCHEM

> <ORIGINAL_SOURCE_URL>
https://pubchem.ncbi.nlm.nih.gov/rest/pug/compound/inchikey/DXVUYOAEDJXBPY-NFFDBFGFSA-N/SDF?record_type=3d

> <SMILES>
[H][C@]12SC(C)(C)[C@@H](N1C(=O)[C@H]2N1C(=O)[C@H](NC1(C)C)C1=CC=CC=C1)C(O)=O

> <INCHI_IDENTIFIER>
InChI=1S/C19H23N3O4S/c1-18(2)13(17(25)26)21-15(24)12(16(21)27-18)22-14(23)11(20-19(22,3)4)10-8-6-5-7-9-10/h5-9,11-13,16,20H,1-4H3,(H,25,26)/t11-,12-,13+,16-/m1/s1

> <INCHI_KEY>
DXVUYOAEDJXBPY-NFFDBFGFSA-N

> <FORMULA>
C19H23N3O4S

> <MOLECULAR_WEIGHT>
389.469

> <EXACT_MASS>
389.140926929

> <JCHEM_ACCEPTOR_COUNT>
5

> <JCHEM_AVERAGE_POLARIZABILITY>
39.58154278946702

> <JCHEM_BIOAVAILABILITY>
1

> <JCHEM_DONOR_COUNT>
2

> <JCHEM_FORMAL_CHARGE>
0

> <JCHEM_GHOSE_FILTER>
0

> <JCHEM_IUPAC>
(2S,5R,6R)-6-[(4R)-2,2-dimethyl-5-oxo-4-phenylimidazolidin-1-yl]-3,3-dimethyl-7-oxo-4-thia-1-azabicyclo[3.2.0]heptane-2-carboxylic acid

> <ALOGPS_LOGP>
0.85

> <JCHEM_LOGP>
-0.015010228405816369

> <ALOGPS_LOGS>
-2.88

> <JCHEM_MDDR_LIKE_RULE>
0

> <JCHEM_NUMBER_OF_RINGS>
4

> <JCHEM_PHYSIOLOGICAL_CHARGE>
-1

> <JCHEM_PKA>
14.993524451963172

> <JCHEM_PKA_STRONGEST_ACIDIC>
3.626005434143019

> <JCHEM_PKA_STRONGEST_BASIC>
5.474500567056694

> <JCHEM_POLAR_SURFACE_AREA>
89.94999999999999

> <JCHEM_REFRACTIVITY>
99.89940000000003

> <JCHEM_ROTATABLE_BOND_COUNT>
3

> <JCHEM_RULE_OF_FIVE>
1

> <ALOGPS_SOLUBILITY>
5.12e-01 g/l

> <JCHEM_TRADITIONAL_IUPAC>
hetacillin

> <JCHEM_VEBER_RULE>
0

$$$$

  Mrv0541 02231214592D          

 34 37  0  0  1  0            999 V2000
   -1.4289   -0.3397    0.0000 C   0  0  0  0  0  0  0  0  0  0  0  0
   -1.4289    0.4853    0.0000 C   0  0  0  0  0  0  0  0  0  0  0  0
    1.4289   -0.3397    0.0000 C   0  0  1  0  0  0  0  0  0  0  0  0
    1.4289    0.4853    0.0000 C   0  0  2  0  0  0  0  0  0  0  0  0
    0.7145   -0.7522    0.0000 C   0  0  0  0  0  0  0  0  0  0  0  0
    0.7145    0.8978    0.0000 C   0  0  0  0  0  0  0  0  0  0  0  0
    0.0000   -0.3397    0.0000 C   0  0  1  0  0  0  0  0  0  0  0  0
    0.0000    0.4853    0.0000 C   0  0  0  0  0  0  0  0  0  0  0  0
   -0.7145    0.8978    0.0000 C   0  0  0  0  0  0  0  0  0  0  0  0
   -0.7145   -0.7522    0.0000 C   0  0  2  0  0  0  0  0  0  0  0  0
    2.1434   -0.7522    0.0000 C   0  0  1  0  0  0  0  0  0  0  0  0
    2.1434    0.8978    0.0000 C   0  0  0  0  0  0  0  0  0  0  0  0
    1.4289    1.3103    0.0000 O   0  0  0  0  0  0  0  0  0  0  0  0
    2.8579   -0.3397    0.0000 C   0  0  0  0  0  0  0  0  0  0  0  0
    2.1434   -1.5772    0.0000 N   0  0  0  0  0  0  0  0  0  0  0  0
    0.7145    1.7228    0.0000 O   0  0  0  0  0  0  0  0  0  0  0  0
    2.8579    0.4853    0.0000 C   0  0  0  0  0  0  0  0  0  0  0  0
    2.1434    1.7228    0.0000 O   0  0  0  0  0  0  0  0  0  0  0  0
    3.5724   -0.7522    0.0000 O   0  0  0  0  0  0  0  0  0  0  0  0
    2.8579   -1.9897    0.0000 C   0  0  0  0  0  0  0  0  0  0  0  0
    1.4289   -1.9897    0.0000 C   0  0  0  0  0  0  0  0  0  0  0  0
    3.5724    0.8978    0.0000 C   0  0  0  0  0  0  0  0  0  0  0  0
   -0.7145    1.7228    0.0000 O   0  0  0  0  0  0  0  0  0  0  0  0
    4.2868    0.4853    0.0000 N   0  0  0  0  0  0  0  0  0  0  0  0
    3.5724    1.7228    0.0000 O   0  0  0  0  0  0  0  0  0  0  0  0
   -2.1434   -0.7522    0.0000 C   0  0  0  0  0  0  0  0  0  0  0  0
   -2.1434    0.8978    0.0000 C   0  0  0  0  0  0  0  0  0  0  0  0
   -2.8579   -0.3397    0.0000 C   0  0  0  0  0  0  0  0  0  0  0  0
   -2.8579    0.4853    0.0000 C   0  0  0  0  0  0  0  0  0  0  0  0
   -2.1434    1.7228    0.0000 O   0  0  0  0  0  0  0  0  0  0  0  0
    1.4289   -1.1647    0.0000 H   0  0  0  0  0  0  0  0  0  0  0  0
    0.0000   -1.1647    0.0000 H   0  0  0  0  0  0  0  0  0  0  0  0
   -1.4289   -1.1647    0.0000 O   0  0  0  0  0  0  0  0  0  0  0  0
   -0.7145   -1.5772    0.0000 C   0  0  0  0  0  0  0  0  0  0  0  0
  1 26  2  0  0  0  0
  1  2  1  0  0  0  0
  2 27  2  0  0  0  0
  3 11  1  0  0  0  0
  3 31  1  1  0  0  0
  3  4  1  0  0  0  0
  4 12  1  0  0  0  0
  4 13  1  1  0  0  0
  3  5  1  0  0  0  0
  4  6  1  0  0  0  0
  6 16  1  0  0  0  0
  5  7  1  0  0  0  0
  7 32  1  1  0  0  0
  7  8  1  0  0  0  0
  6  8  2  0  0  0  0
  8  9  1  0  0  0  0
  9  2  1  0  0  0  0
  9 23  2  0  0  0  0
  7 10  1  0  0  0  0
 10  1  1  0  0  0  0
 10 34  1  1  0  0  0
 10 33  1  0  0  0  0
 11 14  1  0  0  0  0
 11 15  1  1  0  0  0
 12 17  1  0  0  0  0
 12 18  2  0  0  0  0
 14 19  1  0  0  0  0
 14 17  2  0  0  0  0
 15 20  1  0  0  0  0
 15 21  1  0  0  0  0
 17 22  1  0  0  0  0
 22 24  1  0  0  0  0
 22 25  2  0  0  0  0
 26 28  1  0  0  0  0
 27 29  1  0  0  0  0
 27 30  1  0  0  0  0
 28 29  2  0  0  0  0
M  END
> <DATABASE_ID>
DB00759

> <DATABASE_NAME>
drugbank

> <SMILES>
[H][C@@]12C[C@@]3([H])C(=C(O)[C@]1(O)C(=O)C(C(N)=O)=C(O)[C@H]2N(C)C)C(=O)C1=C(O)C=CC=C1[C@@]3(C)O

> <INCHI_IDENTIFIER>
InChI=1S/C22H24N2O8/c1-21(31)8-5-4-6-11(25)12(8)16(26)13-9(21)7-10-15(24(2)3)17(27)14(20(23)30)19(29)22(10,32)18(13)28/h4-6,9-10,15,25,27-28,31-32H,7H2,1-3H3,(H2,23,30)/t9-,10-,15-,21+,22-/m0/s1

> <INCHI_KEY>
OFVLGDICTFRJMM-WESIUVDSSA-N

> <FORMULA>
C22H24N2O8

> <MOLECULAR_WEIGHT>
444.4346

> <EXACT_MASS>
444.153265754

> <JCHEM_ACCEPTOR_COUNT>
9

> <JCHEM_AVERAGE_POLARIZABILITY>
43.0269057235486

> <JCHEM_BIOAVAILABILITY>
1

> <JCHEM_DONOR_COUNT>
6

> <JCHEM_FORMAL_CHARGE>
0

> <JCHEM_GHOSE_FILTER>
0

> <JCHEM_IUPAC>
(4S,4aS,5aS,6S,12aS)-4-(dimethylamino)-3,6,10,12,12a-pentahydroxy-6-methyl-1,11-dioxo-1,4,4a,5,5a,6,11,12a-octahydrotetracene-2-carboxamide

> <ALOGPS_LOGP>
-0.56

> <JCHEM_LOGP>
-3.5476153931003833

> <ALOGPS_LOGS>
-2.52

> <JCHEM_MDDR_LIKE_RULE>
0

> <JCHEM_NUMBER_OF_RINGS>
4

> <JCHEM_PHYSIOLOGICAL_CHARGE>
-1

> <JCHEM_PKA>
4.670540135524194

> <JCHEM_PKA_STRONGEST_ACIDIC>
-2.2437223466266376

> <JCHEM_PKA_STRONGEST_BASIC>
8.243558682468391

> <JCHEM_POLAR_SURFACE_AREA>
181.61999999999998

> <JCHEM_REFRACTIVITY>
114.1883

> <JCHEM_ROTATABLE_BOND_COUNT>
2

> <JCHEM_RULE_OF_FIVE>
0

> <ALOGPS_SOLUBILITY>
1.33e+00 g/l

> <JCHEM_TRADITIONAL_IUPAC>
tetracycline

> <JCHEM_VEBER_RULE>
0

> <DRUGBANK_ID>
DB00759

> <SECONDARY_ACCESSION_NUMBERS>
APRD00572

> <DRUG_GROUPS>
approved; vet_approved

> <GENERIC_NAME>
Tetracycline

> <SYNONYMS>
(4S,4aS,5aS,12aS)-4-(Dimethylamino)-1,4,4a,5,5a,6,11,12a-octahydro-3,6,10,12,12a-pentahydroxy-6-methyl-1,11-dioxo-2-naphthacenecarboxamide; Abramycin; Anhydrotetracycline; Deschlorobiomycin; Tetracyclin; Tétracycline; Tetracycline; Tetracyclinum; Tetrazyklin; Tsiklomitsin

> <PRODUCTS>
Achromycin Ont Oph 1%; Achromycin V; Achromycin V Cap 250mg; Acnecycline; Actisite; Apo Tetra Tabs 250mg; Bismuth Subsalicylate/Metronidazole/Tetracycline Hydrochloride; Dermacline; Diabecline; Dyabetex; FIRST Marys Mouthwash Compounding; HELIDAC Therapy; Jaa Tetra Tab 250mg; Medicycline Cap 250mg; Novo-tetra 250mg; Novo-tetra Sus 125mg/5ml; Nu-tetra Capsules 250mg; Pylera; Sumycin; Tetra-abc; TetraNext; TetraStem; Tetracycline; Tetracycline 1% Onguent Ophthalmic; Tetracycline 3 percent a First Aid Antibiotic; Tetracycline Cap 250mg; Tetracycline Hydrochloride; Tetracycline-ABC; Tetracyn Cap 250mg; Viabecline; Viabecline First Aid Antibiotic; Vitastem; Vitastem-tetracycline hydrochloride

> <INTERNATIONAL_BRANDS>
Achromycin; Liquamycin

> <SALTS>
Tetracycline hydrochloride; Tetracycline phosphate

$$$$
4421
  -OEChem-10051719233D

 29 30  0     0  0  0  0  0  0999 V2000
    1.4946   -2.3100   -0.2952 O   0  0  0  0  0  0  0  0  0  0  0  0
    3.7886   -1.2526    0.4700 O   0  0  0  0  0  0  0  0  0  0  0  0
    4.0613    0.8674   -0.3778 O   0  0  0  0  0  0  0  0  0  0  0  0
   -0.0473    1.4067    0.2899 N   0  0  0  0  0  0  0  0  0  0  0  0
   -2.2994    0.5282    0.1939 N   0  0  0  0  0  0  0  0  0  0  0  0
   -0.9554    0.3262    0.1414 C   0  0  0  0  0  0  0  0  0  0  0  0
   -0.4389   -0.9651   -0.0620 C   0  0  0  0  0  0  0  0  0  0  0  0
   -0.6368    2.7231    0.4990 C   0  0  0  0  0  0  0  0  0  0  0  0
    1.3131    1.1832    0.2345 C   0  0  0  0  0  0  0  0  0  0  0  0
    1.9023   -0.0032    0.0458 C   0  0  0  0  0  0  0  0  0  0  0  0
    1.0280   -1.1914   -0.1200 C   0  0  0  0  0  0  0  0  0  0  0  0
   -1.3101   -2.0466   -0.2110 C   0  0  0  0  0  0  0  0  0  0  0  0
   -3.1185   -0.5384    0.0463 C   0  0  0  0  0  0  0  0  0  0  0  0
   -0.8821    3.4310   -0.8228 C   0  0  0  0  0  0  0  0  0  0  0  0
   -2.6788   -1.8320   -0.1561 C   0  0  0  0  0  0  0  0  0  0  0  0
    3.3637   -0.0606    0.0127 C   0  0  0  0  0  0  0  0  0  0  0  0
   -4.5842   -0.2658    0.1114 C   0  0  0  0  0  0  0  0  0  0  0  0
   -1.5619    2.6790    1.0867 H   0  0  0  0  0  0  0  0  0  0  0  0
    0.0473    3.3390    1.0976 H   0  0  0  0  0  0  0  0  0  0  0  0
    1.8907    2.0931    0.3644 H   0  0  0  0  0  0  0  0  0  0  0  0
   -0.9393   -3.0553   -0.3693 H   0  0  0  0  0  0  0  0  0  0  0  0
    0.0481    3.5434   -1.3896 H   0  0  0  0  0  0  0  0  0  0  0  0
   -1.5888    2.8751   -1.4475 H   0  0  0  0  0  0  0  0  0  0  0  0
   -1.2960    4.4290   -0.6479 H   0  0  0  0  0  0  0  0  0  0  0  0
   -3.3708   -2.6594   -0.2697 H   0  0  0  0  0  0  0  0  0  0  0  0
   -5.0678   -0.5571   -0.8265 H   0  0  0  0  0  0  0  0  0  0  0  0
   -5.0390   -0.8225    0.9369 H   0  0  0  0  0  0  0  0  0  0  0  0
   -4.7793    0.7993    0.2749 H   0  0  0  0  0  0  0  0  0  0  0  0
    4.7670   -1.3242    0.4632 H   0  0  0  0  0  0  0  0  0  0  0  0
  1 11  2  0  0  0  0
  2 16  1  0  0  0  0
  2 29  1  0  0  0  0
  3 16  2  0  0  0  0
  4  6  1  0  0  0  0
  4  8  1  0  0  0  0
  4  9  1  0  0  0  0
  5  6  1  0  0  0  0
  5 13  2  0  0  0  0
  6  7  2  0  0  0  0
  7 11  1  0  0  0  0
  7 12  1  0  0  0  0
  8 14  1  0  0  0  0
  8 18  1  0  0  0  0
  8 19  1  0  0  0  0
  9 10  2  0  0  0  0
  9 20  1  0  0  0  0
 10 11  1  0  0  0  0
 10 16  1  0  0  0  0
 12 15  2  0  0  0  0
 12 21  1  0  0  0  0
 13 15  1  0  0  0  0
 13 17  1  0  0  0  0
 14 22  1  0  0  0  0
 14 23  1  0  0  0  0
 14 24  1  0  0  0  0
 15 25  1  0  0  0  0
 17 26  1  0  0  0  0
 17 27  1  0  0  0  0
 17 28  1  0  0  0  0
M  END
> <DATABASE_ID>
DB00779

> <DATABASE_NAME>
drugbank

> <ORIGINAL_SOURCE>
PUBCHEM

> <ORIGINAL_SOURCE_URL>
https://pubchem.ncbi.nlm.nih.gov/rest/pug/compound/inchikey/MHWLWQUZZRMNGJ-UHFFFAOYSA-N/SDF?record_type=3d

> <SMILES>
CCN1C=C(C(O)=O)C(=O)C2=C1N=C(C)C=C2

> <INCHI_IDENTIFIER>
InChI=1S/C12H12N2O3/c1-3-14-6-9(12(16)17)10(15)8-5-4-7(2)13-11(8)14/h4-6H,3H2,1-2H3,(H,16,17)

> <INCHI_KEY>
MHWLWQUZZRMNGJ-UHFFFAOYSA-N

> <FORMULA>
C12H12N2O3

> <MOLECULAR_WEIGHT>
232.2353

> <EXACT_MASS>
232.08479226

> <JCHEM_ACCEPTOR_COUNT>
5

> <JCHEM_AVERAGE_POLARIZABILITY>
23.649783745099587

> <JCHEM_BIOAVAILABILITY>
1

> <JCHEM_DONOR_COUNT>
1

> <JCHEM_FORMAL_CHARGE>
0

> <JCHEM_GHOSE_FILTER>
1

> <JCHEM_IUPAC>
1-ethyl-7-methyl-4-oxo-1,4-dihydro-1,8-naphthyridine-3-carboxylic acid

> <ALOGPS_LOGP>
0.95

> <JCHEM_LOGP>
1.0082525712681194

> <ALOGPS_LOGS>
-2.00

> <JCHEM_MDDR_LIKE_RULE>
0

> <JCHEM_NUMBER_OF_RINGS>
2

> <JCHEM_PHYSIOLOGICAL_CHARGE>
-1

> <JCHEM_PKA_STRONGEST_ACIDIC>
5.950252968990619

> <JCHEM_PKA_STRONGEST_BASIC>
4.678220137258441

> <JCHEM_POLAR_SURFACE_AREA>
70.5

> <JCHEM_REFRACTIVITY>
62.8245

> <JCHEM_ROTATABLE_BOND_COUNT>
2

> <JCHEM_RULE_OF_FIVE>
1

> <ALOGPS_SOLUBILITY>
2.30e+00 g/l

> <JCHEM_TRADITIONAL_IUPAC>
nalidixic acid

> <JCHEM_VEBER_RULE>
0

$$$$

  Mrv1902 02281916142D          

 86 87  0  0  0  0            999 V2000
    6.8044   -2.0573    0.0000 N   0  0  0  0  0  0  0  0  0  0  0  0
    6.0896   -2.4673    0.0000 C   0  0  2  0  0  0  0  0  0  0  0  0
   -2.4898    0.0075    0.0000 C   0  0  1  0  0  0  0  0  0  0  0  0
   -1.7699    0.4125    0.0000 C   0  0  0  0  0  0  0  0  0  0  0  0
    6.7945    1.2274    0.0000 N   0  0  0  0  0  0  0  0  0  0  0  0
    4.6646    1.6424    0.0000 N   0  0  0  0  0  0  0  0  0  0  0  0
   -3.1998    0.4125    0.0000 N   0  0  0  0  0  0  0  0  0  0  0  0
    8.2143    0.4125    0.0000 N   0  0  0  0  0  0  0  0  0  0  0  0
    7.5094   -2.4673    0.0000 C   0  0  0  0  0  0  0  0  0  0  0  0
    8.2194   -1.2323    0.0000 N   0  0  0  0  0  0  0  0  0  0  0  0
    2.5298    1.1975    0.0000 N   0  0  0  0  0  0  0  0  0  0  0  0
    6.0896    1.6424    0.0000 C   0  0  0  0  0  0  0  0  0  0  0  0
    8.2194    1.2374    0.0000 C   0  0  0  0  0  0  0  0  0  0  0  0
    3.9447    1.2223    0.0000 C   0  0  0  0  0  0  0  0  0  0  0  0
    8.9243   -0.8173    0.0000 C   0  0  0  0  0  0  0  0  0  0  0  0
    2.5198    0.3824    0.0000 C   0  0  0  0  0  0  0  0  0  0  0  0
   -3.9147    0.0075    0.0000 C   0  0  0  0  0  0  0  0  0  0  0  0
    5.2745   -2.4622    0.0000 C   0  0  0  0  0  0  0  0  0  0  0  0
    5.3796    1.2223    0.0000 C   0  0  1  0  0  0  0  0  0  0  0  0
    7.5094    1.6424    0.0000 C   0  0  2  0  0  0  0  0  0  0  0  0
    0.3749    0.0075    0.0000 C   0  0  0  0  0  0  0  0  0  0  0  0
   -1.0499    0.0075    0.0000 N   0  0  0  0  0  0  0  0  0  0  0  0
    1.0949    0.3974    0.0000 N   0  0  0  0  0  0  0  0  0  0  0  0
    8.2194   -2.0473    0.0000 C   0  0  1  0  0  0  0  0  0  0  0  0
    3.2397    1.6273    0.0000 C   0  0  1  0  0  0  0  0  0  0  0  0
    8.9243    0.0075    0.0000 C   0  0  2  0  0  0  0  0  0  0  0  0
    1.7998   -0.0225    0.0000 C   0  0  1  0  0  0  0  0  0  0  0  0
   -5.3546    0.0075    0.0000 N   0  0  0  0  0  0  0  0  0  0  0  0
   -0.3449    0.4125    0.0000 C   0  0  1  0  0  0  0  0  0  0  0  0
    4.8545   -3.1722    0.0000 N   0  0  0  0  0  0  0  0  0  0  0  0
   -4.6347    0.4175    0.0000 C   0  0  1  0  0  0  0  0  0  0  0  0
   -6.0646    0.4125    0.0000 C   0  0  0  0  0  0  0  0  0  0  0  0
   -1.7699    1.2374    0.0000 O   0  0  0  0  0  0  0  0  0  0  0  0
    7.5094   -3.2923    0.0000 O   0  0  0  0  0  0  0  0  0  0  0  0
    8.9343    1.6424    0.0000 O   0  0  0  0  0  0  0  0  0  0  0  0
    6.0896    2.4673    0.0000 O   0  0  0  0  0  0  0  0  0  0  0  0
    3.9597    0.3974    0.0000 O   0  0  0  0  0  0  0  0  0  0  0  0
    9.6443   -1.2323    0.0000 O   0  0  0  0  0  0  0  0  0  0  0  0
    3.2347   -0.0375    0.0000 O   0  0  0  0  0  0  0  0  0  0  0  0
    5.3796    0.3974    0.0000 C   0  0  0  0  0  0  0  0  0  0  0  0
   -3.9147   -0.8173    0.0000 O   0  0  0  0  0  0  0  0  0  0  0  0
    0.3749   -0.8273    0.0000 O   0  0  0  0  0  0  0  0  0  0  0  0
    4.8596   -1.7423    0.0000 O   0  0  0  0  0  0  0  0  0  0  0  0
    7.4995    2.4673    0.0000 C   0  0  0  0  0  0  0  0  0  0  0  0
    6.0896   -3.2923    0.0000 C   0  0  2  0  0  0  0  0  0  0  0  0
   -2.4898   -0.8273    0.0000 C   0  0  2  0  0  0  0  0  0  0  0  0
   -6.0646    1.2374    0.0000 O   0  0  0  0  0  0  0  0  0  0  0  0
    1.7848   -0.8474    0.0000 C   0  0  0  0  0  0  0  0  0  0  0  0
    4.0296   -3.1722    0.0000 C   0  0  0  0  0  0  0  0  0  0  0  0
    8.9394   -2.4673    0.0000 C   0  0  0  0  0  0  0  0  0  0  0  0
    9.6443    0.4125    0.0000 C   0  0  0  0  0  0  0  0  0  0  0  0
    3.2247    2.4522    0.0000 C   0  0  0  0  0  0  0  0  0  0  0  0
   -0.3449    1.2374    0.0000 C   0  0  0  0  0  0  0  0  0  0  0  0
   -4.6347    1.2424    0.0000 C   0  0  0  0  0  0  0  0  0  0  0  0
    6.0896   -0.0075    0.0000 C   0  0  0  0  0  0  0  0  0  0  0  0
   11.0692    0.4125    0.0000 N   0  0  0  0  0  0  0  0  0  0  0  0
   -3.9147    2.4823    0.0000 N   0  0  0  0  0  0  0  0  0  0  0  0
    0.3749    2.4823    0.0000 N   0  0  0  0  0  0  0  0  0  0  0  0
    9.6593   -3.6972    0.0000 N   0  0  0  0  0  0  0  0  0  0  0  0
    2.4898    3.6822    0.0000 N   0  0  0  0  0  0  0  0  0  0  0  0
    5.3846   -3.7122    0.0000 O   0  0  0  0  0  0  0  0  0  0  0  0
   -1.7699   -1.2374    0.0000 O   0  0  0  0  0  0  0  0  0  0  0  0
    8.2194    2.8873    0.0000 C   0  0  0  0  0  0  0  0  0  0  0  0
   -6.7795    0.0075    0.0000 C   0  0  0  0  0  0  0  0  0  0  0  0
   10.3592    0.0075    0.0000 C   0  0  0  0  0  0  0  0  0  0  0  0
    2.5048    2.8572    0.0000 C   0  0  0  0  0  0  0  0  0  0  0  0
    8.9394   -3.2923    0.0000 C   0  0  0  0  0  0  0  0  0  0  0  0
   -3.9147    1.6574    0.0000 C   0  0  0  0  0  0  0  0  0  0  0  0
    0.3749    1.6574    0.0000 C   0  0  0  0  0  0  0  0  0  0  0  0
    6.8095   -3.7122    0.0000 C   0  0  0  0  0  0  0  0  0  0  0  0
   -3.1998   -1.2374    0.0000 C   0  0  0  0  0  0  0  0  0  0  0  0
    6.0896   -0.8423    0.0000 C   0  0  0  0  0  0  0  0  0  0  0  0
    6.8044    0.4025    0.0000 C   0  0  0  0  0  0  0  0  0  0  0  0
   -9.6443    0.0075    0.0000 C   0  0  0  0  0  0  0  0  0  0  0  0
   -7.4895    0.4125    0.0000 C   0  0  0  0  0  0  0  0  0  0  0  0
  -10.3543    0.4125    0.0000 C   0  0  0  0  0  0  0  0  0  0  0  0
   -8.9243    0.4125    0.0000 C   0  0  0  0  0  0  0  0  0  0  0  0
    8.9394    2.4723    0.0000 C   0  0  0  0  0  0  0  0  0  0  0  0
    8.2194    3.7122    0.0000 C   0  0  0  0  0  0  0  0  0  0  0  0
   -8.2044    0.0075    0.0000 C   0  0  0  0  0  0  0  0  0  0  0  0
   -9.6443   -0.8273    0.0000 C   0  0  0  0  0  0  0  0  0  0  0  0
  -11.0692   -0.0024    0.0000 C   0  0  0  0  0  0  0  0  0  0  0  0
    6.8044   -1.2473    0.0000 C   0  0  0  0  0  0  0  0  0  0  0  0
    7.5145   -0.0024    0.0000 C   0  0  0  0  0  0  0  0  0  0  0  0
    7.5244   -0.8324    0.0000 C   0  0  0  0  0  0  0  0  0  0  0  0
    7.1279   -3.0687    0.0000 H   0  0  0  0  0  0  0  0  0  0  0  0
  2  1  1  0  0  0  0
  3  4  1  0  0  0  0
  4 22  1  0  0  0  0
  5 20  1  0  0  0  0
  6 14  1  0  0  0  0
  3  7  1  6  0  0  0
  8 26  1  0  0  0  0
  9  1  1  0  0  0  0
 10 24  1  0  0  0  0
 11 16  1  0  0  0  0
 12  5  1  0  0  0  0
 13  8  1  0  0  0  0
 14 25  1  0  0  0  0
 15 10  1  0  0  0  0
 16 27  1  0  0  0  0
 17  7  1  0  0  0  0
 18  2  1  0  0  0  0
 19 12  1  0  0  0  0
 20 13  1  0  0  0  0
 21 23  1  0  0  0  0
 29 22  1  1  0  0  0
 27 23  1  6  0  0  0
 24  9  1  0  0  0  0
 25 11  1  0  0  0  0
 26 15  1  0  0  0  0
 27 48  1  0  0  0  0
 31 28  1  1  0  0  0
 29 21  1  0  0  0  0
 30 18  1  0  0  0  0
 31 17  1  0  0  0  0
 32 28  1  0  0  0  0
 33  4  2  0  0  0  0
 34  9  2  0  0  0  0
 35 13  2  0  0  0  0
 36 12  2  0  0  0  0
 37 14  2  0  0  0  0
 38 15  2  0  0  0  0
 39 16  2  0  0  0  0
 19 40  1  1  0  0  0
 41 17  2  0  0  0  0
 42 21  2  0  0  0  0
 43 18  2  0  0  0  0
 20 44  1  1  0  0  0
 45  2  1  0  0  0  0
 46  3  1  0  0  0  0
 47 32  2  0  0  0  0
 48 49  1  0  0  0  0
 49 30  1  0  0  0  0
 24 50  1  1  0  0  0
 26 51  1  1  0  0  0
 25 52  1  6  0  0  0
 29 53  1  0  0  0  0
 31 54  1  0  0  0  0
 55 40  1  0  0  0  0
 56 65  1  0  0  0  0
 57 68  1  0  0  0  0
 58 69  1  0  0  0  0
 59 67  1  0  0  0  0
 60 66  1  0  0  0  0
 45 61  1  1  0  0  0
 46 62  1  6  0  0  0
 63 44  1  0  0  0  0
 64 32  1  0  0  0  0
 65 51  1  0  0  0  0
 66 52  1  0  0  0  0
 67 50  1  0  0  0  0
 68 54  1  0  0  0  0
 69 53  1  0  0  0  0
 70 45  1  0  0  0  0
 71 46  1  0  0  0  0
 72 55  2  0  0  0  0
 73 55  1  0  0  0  0
 74 77  1  0  0  0  0
 75 64  1  0  0  0  0
 76 74  1  0  0  0  0
 77 80  1  0  0  0  0
 78 63  1  0  0  0  0
 79 63  1  0  0  0  0
 80 75  1  0  0  0  0
 81 74  1  0  0  0  0
 82 76  1  0  0  0  0
 83 72  1  0  0  0  0
 84 73  2  0  0  0  0
 85 83  2  0  0  0  0
  6 19  1  0  0  0  0
 85 84  1  0  0  0  0
  2 86  1  6  0  0  0
M  END
> <DATABASE_ID>
DB00781

> <DATABASE_NAME>
drugbank

> <SMILES>
[H][C@]1(NC(=O)[C@H](CCN)NC(=O)[C@H](CCN)NC(=O)[C@H](CC(C)C)NC(=O)[C@@H](CC2=CC=CC=C2)NC(=O)[C@@H](CCN)NC(=O)[C@H](CCNC1=O)NC(=O)[C@H](CCN)NC(=O)[C@@H](NC(=O)[C@H](CCN)NC(=O)CCCCC(C)CC)[C@@H](C)O)[C@@H](C)O

> <INCHI_IDENTIFIER>
InChI=1S/C56H98N16O13/c1-7-32(4)13-11-12-16-44(75)63-36(17-23-57)51(80)72-46(34(6)74)56(85)68-39(20-26-60)48(77)67-41-22-28-62-55(84)45(33(5)73)71-52(81)40(21-27-61)65-47(76)37(18-24-58)66-53(82)42(29-31(2)3)69-54(83)43(30-35-14-9-8-10-15-35)70-49(78)38(19-25-59)64-50(41)79/h8-10,14-15,31-34,36-43,45-46,73-74H,7,11-13,16-30,57-61H2,1-6H3,(H,62,84)(H,63,75)(H,64,79)(H,65,76)(H,66,82)(H,67,77)(H,68,85)(H,69,83)(H,70,78)(H,71,81)(H,72,80)/t32?,33-,34-,36+,37+,38-,39+,40+,41+,42+,43-,45+,46+/m1/s1

> <INCHI_KEY>
WQVJHHACXVLGBL-BPJDFBQWSA-N

> <FORMULA>
C56H98N16O13

> <MOLECULAR_WEIGHT>
1203.499

> <EXACT_MASS>
1202.74992728

> <JCHEM_ACCEPTOR_COUNT>
18

> <JCHEM_ATOM_COUNT>
183

> <JCHEM_AVERAGE_POLARIZABILITY>
127.40228236438216

> <JCHEM_BIOAVAILABILITY>
0

> <JCHEM_DONOR_COUNT>
18

> <JCHEM_FORMAL_CHARGE>
0

> <JCHEM_GHOSE_FILTER>
0

> <JCHEM_IUPAC>
N-[(1S)-3-amino-1-{[(1S,2R)-1-{[(1S)-3-amino-1-{[(3S,6S,9S,12S,15R,18R,21S)-6,9,18-tris(2-aminoethyl)-15-benzyl-3-[(1R)-1-hydroxyethyl]-12-(2-methylpropyl)-2,5,8,11,14,17,20-heptaoxo-1,4,7,10,13,16,19-heptaazacyclotricosan-21-yl]carbamoyl}propyl]carbamoyl}-2-hydroxypropyl]carbamoyl}propyl]-6-methyloctanamide

> <ALOGPS_LOGP>
-0.89

> <JCHEM_LOGP>
-7.2491706079999965

> <ALOGPS_LOGS>
-4.21

> <JCHEM_MDDR_LIKE_RULE>
0

> <JCHEM_NUMBER_OF_RINGS>
2

> <JCHEM_PHYSIOLOGICAL_CHARGE>
5

> <JCHEM_PKA>
12.036667759940395

> <JCHEM_PKA_STRONGEST_ACIDIC>
11.57313014624903

> <JCHEM_PKA_STRONGEST_BASIC>
10.230227871316952

> <JCHEM_POLAR_SURFACE_AREA>
490.65999999999985

> <JCHEM_REFRACTIVITY>
313.21549999999996

> <JCHEM_ROTATABLE_BOND_COUNT>
29

> <JCHEM_RULE_OF_FIVE>
0

> <ALOGPS_SOLUBILITY>
7.44e-02 g/l

> <JCHEM_TRADITIONAL_IUPAC>
N-[(1S)-3-amino-1-{[(1S,2R)-1-{[(1S)-3-amino-1-{[(3S,6S,9S,12S,15R,18R,21S)-6,9,18-tris(2-aminoethyl)-15-benzyl-3-[(1R)-1-hydroxyethyl]-12-(2-methylpropyl)-2,5,8,11,14,17,20-heptaoxo-1,4,7,10,13,16,19-heptaazacyclotricosan-21-yl]carbamoyl}propyl]carbamoyl}-2-hydroxypropyl]carbamoyl}propyl]-6-methyloctanamide

> <JCHEM_VEBER_RULE>
0

> <DRUGBANK_ID>
DB00781

> <SECONDARY_ACCESSION_NUMBERS>
APRD01190

> <DRUG_GROUPS>
approved; vet_approved

> <GENERIC_NAME>
Polymyxin B

> <SYNONYMS>
Polimixina B; Polymyxin B; Polymyxine B; Polymyxinum B

> <PRODUCTS>
10 Person ANSI; 25 Person ANSI; 4032 First Aid Kit; 4042 First Aid Kit; 4050 First Aid Kit; 4064 First Aid Kit; 4065 First Aid Kit; 4066 First Aid Kit; 4067 First Aid Kit; 4125 First Aid Kit; 4135 First Aid Kit; 4138 First Aid Kit; 4150 First Aid Kit; 4152 First Aid Kit; 4155 First Aid Kit; 4166 First Aid Kit; 4167 First Aid Kit; 4168 First Aid Kit; 4196 First Aid Kit; 4197 First Aid Kit; 4198 First Aid Kit; 4199 First Aid Kit; 4200 First Aid Kit; 4201 First Aid Kit; 4202 First Aid Kit; 4209 First Aid Kit; 4211 First Aid Kit; 4212 First Aid Kit; 4215 First Aid Kit; 4216 First Aid Kit; 4219 First Aid Kit; 4221 First Aid Kit; 4222 First Aid Kit; 4229 First Aid Kit; 4230 First Aid Kit; 4231First Aid Kit; 4232 First Aid Kit; 4234 First Aid Kit; 4235 First Aid Kit; 4239 First Aid Kit; 4240 First Aid Kit; 4241 First Aid Kit; 4242 First Aid Kit; 4245 First Aid Kit; 4248 First Aid Kit; 4249 First Aid Kit; 4250 First Aid Kit; 4252 First Aid Kit; 4253 First Aid Kit; 4254 First Aid Kit; 4255 First Aid Kit; 4271 First Aid Kit; 4272 First Aid Kit; 4274 First Aid Kit; 4276 First Aid Kit; 4277 First Aid Kit; 4279 First Aid Kit; 4280 First Aid Kit; 4281 First Aid Kit; 4282 First Aid Kit; 4283 First Aid Kit; 4284 First Aid Kit; 4287 First Aid Kit; 4289 First Aid Kit; 4291 First Aid Kit; 4292 First Aid Kit; 4293 First Aid Kit; 4295 First Aid Kit; 4299 First Aid Kit; 4303 First Aid Kit; 4304 First Aid Kit; 4305 First Aid Kit; 4314 First Aid Kit; 4315 First Aid Kit; 4317 First Aid Kit; 4318 First Aid Kit; 4319 First Aid Kit; 4329 First Aid Kit; 4334 First Aid Kit; 4336 First Aid Kit; 4338 First Aid Kit; 4339 First Aid Kit; 4346 First Aid Kit; 4355 First Aid Kit; 4356 First Aid Kit; 4357 First Aid Kit; 4358 First Aid Kit; 4361 First Aid Kit; 4362 First Aid Kit; 4363 First Aid Kit; 4364 First Aid Kit; 4365 First Aid Kit; 4367 First Aid Kit; 4379 First Aid Kit; 4380 First Aid Kit; 4381 First Aid Kit; 4382 First Aid Kit; 4383 First Aid Kit; 4384 First Aid Kit; 4387 First Aid Kit; 4388 First Aid Kit; 4389 First Aid Kit; 4393 First Aid Kit; 4398 First Aid Kit; 4399 First Aid Kit; 50 Person ANSI; 7 Select First Aid Triple Antibiotic; ACME FIRST AID Contains 404 PIECES; ACME Small Cuts and Burns; AK-Trol; ANCALIMA First Aid; ARC FIRST AID Contains 1000 PIECES; ARC FIRST AID Contains 303 PIECES; ARC FIRST AID Contains 303 PIECES HARDCASE; ARC FIRST AID Contains 404 PIECES; ARC FIRST AID Emergency Preparedness Contains 167 PIECES; AVON HeXashield Triple Antibiotic with Pain Relief; Acme Home/Office/Auto Kit; Adventure First Aid .5 Tin; Adventure Medical Kits 1-2 Person First Aid; Adventure Medical Kits 1-2 Person National Ski Patrol First Aid; Adventure Medical Kits 1-4 Person First Aid; Aerosoothe; Aerosporin Sterile Powder; Afassco Triple Antibiotic; Aftate Triple Antibiotic; Ak-poly-bac; American Red Cross First Aid Kit; Antibiotic; Antibiotic Application; Antibiotic Cold Sore Ointment; Antibiotic Cream; Antibiotic Cream Plus Pain Relief; Antibiotic Cream Plus Pain Relief for Kids; Antibiotic Cream for Kids; Antibiotic Drops; Antibiotic Ear (Neo/Polym/HC); Antibiotic Ear Drops; Antibiotic Eye Drops; Antibiotic Lozenges; Antibiotic Maximum Strength; Antibiotic Ointment; Antibiotic Ointment USP; Antibiotic Original Strength; Antibiotic Plus Pain Relief; Antibiotic Plus Pain Relief Cream; Antibiotic Plus Pain Relief Maximum Strength; Antibiotic and Pain Relief; Antibiotic and Pain Relief Maximum Strength; Antibiotic and pain relief maximum strength; Antibiotic plus Pain Relief; Antibiotic, Pain and Scar; Antibiotique Onguent; Atopalm First Aid Triple Antibiotic; Atopalm First Aid Triple Antibiotic Protection Moisturizing and Pain Relief; Atopalm First Aid Triple Antibiotic plus Pain Relief; BLUE ACME SLEEVE FIRST AID Contains 1000 PIECES; Bacimyxin Onguent; Bacitracin; Bacitracin Zinc; Bacitracin Zinc and Polymyxin B Sulfate; Bacitracin Zinc, Neomycin Sulfate and Polymyxin B Sulfate; Band-aid Brand Adhesive Bandages Plus Antibiotic; Band-aid-S-1; Basic Care First Aid Antibiotic; Basic Care First Aid Antibiotic Plus Pain Relief; Berkley and Jensen Triple Antibiotic; Bi-Mart Triple Antibiotic; Bi-Mart Triple Antibiotic plus Pain Relief; Bioderm Ointment; Biotic-Plus; Budpak Triple Antibiotic Maximum Strength; Bus and Classroom Yellow; CAREONE Antibiotic Plus Pain Relief; CAREONE Triple Antibiotic; CVP Triple Antibiotic; CVS All Purpose First Aid Kit; CVS Cuts and Scrapes Refill Pack; CVS First Aid Kit; CVS Health All Purpose Kit; CVS Health Healing on the Go Kit; CVS Health Medication and Topical Refill Pouch; CVS Health Sports Kit; CVS Health Triple Antibiotic; CVS Health Triple Antibiotic with Pain Relief; CVS Triple Antibiotic; Cardinal Health First Aid Antibiotic; Care Bus and Classroom Yellow; Care One Maximum Strength First Aid Antibiotic; CareALL Triple Antibiotic; CareALL Triple Antibiotic plus Pain Relief; Careone Original Strength Triple Antibiotic; Careone Triple Antibiotic; Casporyn HC; Childrens Double Antibiotic with Pain Relief; Circle K Triple Antibiotic; Complete Antibiotic Ointment; Cortisporin; Cortisporin Ophthalmic; Cortomycin; Crane Safety Triple Antibiotic; Cuadriderma; Curad Maximum Strength Triple Antibiotic; DAYMARK FAK-35 First Aid; DG Health Antibiotic; DG Health Poly Antibiotic; DG Health Triple Antibiotic; DG Poly Antibiotic First Aid Antibiotic; Dg Health Triple Antibiotic; Dioptrol Ointment; Dioptrol Suspension; Diosporin Ointment; Double Antibiotic; Double Antibiotic Plus Pain Relief Maximum Strength; Doubleantibioticointment; Dr Bells Pomade; EQUATE Triple Antibiotic; Easy Care First Aid; Easy Care First Aid - All Purpose; Easy Care First Aid Chest - Home and Workshop; Easy Care First Aid Kit - Outdoor and Travel; Easy Care First Aid Kit - Sports and Travel; Easy Care First Aid Triple Antibiotic; Ecolab Triple Antibiotic; Emergency Preparedness; Equaline Antibiotic Plus Pain Relief; Equaline Antibiotic Plus Pain Relief for Kids; Equaline First Aid Antibiotic; Equaline Triple Antibiotic; Equaline Triple Antibiotic Plus; Equate Antibiotic Plus Pain Relief; Equate First Aid Antibiotic; Equate First Aid Antibiotic Pain Relieving; Equate First Aid Antibiotic Plus Pain Relief; Eurosporin; Exchange Select First Aid Triple Anitbiotic Pain Relieving; Exchange Select triple antibiotic; FAK Care4 Bus and School Yellow ORM D; FAK Large Office First Aid kit; FIRST AID Contains 1000 PIECES; FIRST AID Contains 303 PIECES; FIRST AID Contains 303 PIECES HARDCASE; FIRST AID Contains 404 PIECES; Face Values Triple Antibiotic; Family Care Antibiotic; Family Care Triple Antibiotic; Family Care Triple Antibiotic Plus Pain Relief; Family Wellness; Family Wellness Antiseptic and Pain Relief; Family Wellness First Aid Antibiotic; Family Wellness Original; Family Wellness Pain Scar Itch; Family Wellness Plus Pain Relief; Family Wellness Triple Antibiotic Plus Pain Relief; Family wellness; First Aid Antibiotic; First Aid Antibiotic Ointment; First Aid Antibiotic Plus Pain Relief Maximum Strength; First Aid Only Triple Antibiotic; First Aid Pocket Pack - 40 Pieces; First Aid Triple Antibiotic; First Aid Triple Antibiotic Pain and Scar; First Aid Triple Antibiotic and Pain Relief Maximum Strength; First Aid Triple Antibiotic with Pain Reliever; First Aid Value Pack - 77 Pieces; Fonow; Formucare Triple Antibiotic Original Strength; Fulton Street Market Triple Antibiotic Original Strength; GENUINE FIRST AID Emergency Preparedness Contains 167 PIECES HARDCASE; GENUINE FIRST AID Emergency Preparedness Contains 167 Pieces; GFA First Aid; GFA First Aid 16 Unit Metal Case; GFA First Aid 24 Unit Metal Case; GFA First Aid 36 Unit Metal Case; GFA First Aid 75 Person Metal Case; GFA First Aid Kit Essentials - 33 Pieces; GLINT TRIPLE ANTIBIOTIC First Aid; Genuine First Aid - Auto First Aid; Genuine First Aid - Home First Aid; Genuine First Aid Industrial First Aid; Genuine Triple Antibiotic; Gercillin; Good Neighbor Pharmacy Antibiotic and Pain Relief; Good Neighbor Pharmacy Emergency Preparedness and First Aid Contains 167 Pieces; Good Neighbor Pharmacy First Aid; Good Neighbor Pharmacy Triple Antibiotic; Good Neighbor Pharmacy Triple Antibiotic Plus Pain Relief; Good Sense First Aid Antibiotic; Good Sense Triple Antibiotic; Good Sense Triple Antibiotic and Pain Relief; GoodSense Antibiotic plus Pain Relief; Goodsense First Aid Antibiotic; Green Guard Triple Antibiotic; H E Buddy Antibiotic Maximum Strength Plus Pain Relief; Harris Teeter Poly Antibiotic; Harris Teeter Triple Antibioitic; Harris Teeter Triple Antibiotic Plus Pain Relief; Healthy Accents Triple Antibiotic; Healthy Accents triple antibiotic; Jampolycin; K-Mart SmartSense First Aid Contains 303 Pieces; Kaiser Permanente Double antibiotic; Kit Breakroom Office First Aid; Kit Large Office First Aid; LEADER Triple Antibiotic; Lanabiotic Ont; Large ANSI First Aid Kit; Laryngets Loz; Leader First Aid Antibiotic; Leader Triple Antibiotic; Leader Triple Antibiotic Plus; Leader Triple Antibiotic and Pain Relief; Lidomyxin; Lidosporin Cream; Lidosporin Ear Drops; Lincoln; Live Better Triple Antibiotic; Live Better Triple Antibiotic plus Pain Relief; LiveBetter Antibiotic Plus Pain Relief; Lucky SuperSoft First Aid; MAKESENSE First Aid; Major Triple Antibiotic; Market Basket First Aid Triple Antibiotic; Maxitrol; Medi-First; Medi-First Plus Triple Antibiotic; Medi-First Triple Antibiotic; MediChoice Triple Antibiotic; Medpride First Aid; Meijer Antibiotic Plus Pain Relief; Meijer Triple Antibiotic Plus; Methedex; Mountain Series Weekender Medical; Multi Antibiotic with Pain Relief Maximum Strength; NATUREPLEX ANTIBIOTIC plus PAIN RELIEF; NEOMYCIN and POLYMYXIN B SULFATES and HYDROCORTISONE; NEOSPORIN Plus BURN RELIEF; Neo Bace Ophthalmic Ointment; Neo Polycin; Neo Polycin HC; Neo-poly-bac; Neo-poly-bac Hydro; Neo-poly-dex; Neo-polycin; Neo-polycin HC; Neocidin; Neomycin Polymyxin B Sulfates and Dexamethasone; Neomycin Sulfate, Polymyxin B Sulfate and Bacitracin Zinc; Neomycin Sulfate, Polymyxin B Sulfate and Dexamethasone; Neomycin and Polymyxin B Sulfates; Neomycin and Polymyxin B Sulfates and Bacitracin Zinc; Neomycin and Polymyxin B Sulfates and Bacitracin Zinc with Hydrocortisone Acetate; Neomycin and Polymyxin B Sulfates and Dexamethasone; Neomycin and Polymyxin B Sulfates and Gramicidin; Neomycin and Polymyxin B Sulfates and Hydrocortisone; Neomycin and Polymyxin B Sulfates and Hydrocortisone Otic Suspension; Neomycin and Polymyxin B Sulfates, Bacitracin Zinc and Hydrocortisone; Neomycin and Polymyxin B Sulfates, Bacitracin Zinc, and Hydrocortisone; Neomycin and Polymyxin B Sulfates, and Bacitracin Zinc; Neomycin and Polymyxin B sulfates, Bacitracin zinc; Neomycin and polymyxin B sulfates and bacitracin zinc; Neomycin, Polymyxin B Sulfates and Hydrocortisone; Neosporin; Neosporin Antibiotic Cream; Neosporin Eye-ear Solution; Neosporin G.U.; Neosporin Irrigating Solution; Neosporin Kids Plus Pain Relief; Neosporin Ointment; Neosporin Ophthalmic Ointment; Neosporin Original; Neosporin Pain Itch Scar; Neosporin Plus Pain Relief; Neosporin Plus Pain Relief First Aid Antibiotic Pain Relieving For Kids; Neosporin Plus Pain Relief First Aid Antibiotic/Pain Relieving; Neosporin Plus Pain Relief Neo To Go First Aid Antibiotic Pain Relieving; Neosporin Plus Pain Relief Neo to Go; Neotopic Ointment; North Triple Antibiotic; Npd; OLP Triple Antibiotic; OLP Triple Antibiotic Plus; Odan-spor; Odan-spor-HC; Odan-trol; Omnisporin; Onguent Antibiotique; Ophthocort Ont; Optimyxin; Optimyxin Ophthalmic Ointment; Optimyxin Plus; Ori-power; Original Antibiotic Cream; Our Family Triple Antibiotic; Ozonol Antibiotic Plus - Ointment; Ozonol Antibiotic Plus Ont; Ozonol Antibiotics Plus; PMS-polytrimethoprim; POLYMYXIN B SULFATE and TRIMETHOPRIM SULFATE; Paraid Triple Antibiotic; Pediotic; Penimixcina; Pentrexcilina Triple Antibiotic; Pentrexcilina Triple Antibiotic Plus Pain Relief; Polvos de Sulpha First Aid Antibiotic; Poly Antibiotic; Poly Bacitracin; Poly-pred; Polycidin Eye, Ear Drops; Polycidin Ophthalmic Ointment; Polycin; Polyderm Antibiotic Ointment; Polyderm Ointment USP; Polymyxin B; Polymyxin B Sulfate and Trimethoprim; Polymyxin B Sulfate and Trimethoprim Sulfate; Polymyxin B for Injection USP; Polysporin; Polysporin Antibiotic Burn Cream; Polysporin Antibiotic Cream; Polysporin Antibiotic Ointment; Polysporin Burn Formula Cream; Polysporin Cold Sore Ointment; Polysporin Complete; Polysporin Cream; Polysporin Eye and Ear Drops Sterile; Polysporin First Aid Antibiotic; Polysporin Plus Pain Relief; Polysporin Plus Pain Relief Ear Drops; Polysporin Singles; Polysporin Sterile Ophthalmic Ointment; Polysporin Topical First Aid Antibiotic Ointment; Polysporin Triple Antibiotic Ointment; Polysporin for Kids; Polysporin for Stitches; Polytopic; Polytopic Cream; Polytopic Ont; Polytrim; Polytrim Ophthalmic Solution; Pomada De La Campana Triple Antibiotic Pain Relief; Premier Value Antibiotic Plus Pain Relief; Premier Value Max Strength Antibiotic plus pain relief; Premier Value Triple Antibiotic; Premier Value Triple Antibiotic Plus; ProCoMycin; Procure Triple Antibiotic Cream plus Active Manuka Honey; ProcureTriple Antibiotic Triple Antibiotic; Publix antibiotic; Publix antibiotic plus Pain Relief; Publix antibiotic plus pain relief; Pulmosirum Pastille; Quality Choice Maximum Strength Triple Antibiotic; Quality Choice Triple Antibiotic; Quality Choice Triple Antibiotic Plus Pain Reliever; ReCellTis; ReCellTis Wound Cream; Ready America First Aid Outdoor- 107 Pieces; Ready America First Aid Pocket - 33 Pieces; Redicare Triple Antibiotic First Aid; Refill 2; Repara Triple Antibiotic; Safeway Antibiotic Plus Pain Relief; Sandoz Cortimyxin; Sandoz Polytrimethoprim; Schein Triple Antibiotic; Select Medical Products Triple Antibiotic; Sheffield Triple Antibiotic; Sheffield Triple Antibiotic Plus Pain Relief; ShopRite Triple Antibiotic; Shopko Antibiotic Plus Pain Relief; Shopko Triple Antibiotic; Shopko Triple Antibiotic Plus; Shopko Triple Antibiotic plus Pain Relief; Shoprite Triple Antibiotic; Signature Care First Aid Antibiotic; Signature Care Triple Antibiotic; Simply Neosporin First Aid Antibiotic; Small Cuts and Burns; Smart Sense Antibiotic Maximum Strength; Smart Sense Triple Antibiotic; Smart Sense antibiotic plus pain relief; Smart Sense triple antibitotic plus pain relief; Standard ANSI First Aid; Statrol; Sterisporin; Sunmark Antibiotic Plus Pain Relief; Sunmark Double Antibiotic; Sunmark Triple Antibiotic; Sunmark Triple Antibiotic Plus Pain Relief; Sx1 Medicated Post-Operative System; Synalar Bi-otic Solution; Terramycin; The New Parent First Aid; TheraPlusPlus Plus; TopCare Antibiotic Plus Pain Relief; TopCare Triple Antibiotic Plus Pain Relief; Topcare Antibiotic; Topcare Triple Antibiotic; Topical Antibiotic Ointment; Travel Savvy First Aid Triple Antibiotic; Travel Savvy Triple Antibiotic; Triastem Topical Antibiotic; Tribiotic; Tribioticlc Lc Lc; Trimethoprim sulfate and Polymyxin B sulfate; Triple Antibiotic; Triple Antibiotic CVS; Triple Antibiotic Extra Strength; Triple Antibiotic First Aid; Triple Antibiotic First Aid Antibiotic; Triple Antibiotic GRX; Triple Antibiotic HC; Triple Antibiotic Maximum Strength; Triple Antibiotic Ointment; Triple Antibiotic Plus; Triple Antibiotic Plus Maximum Strength; Triple Antibiotic Plus Pain Relief; Triple Antibiotic Plus Pain Relief Maximum Strength; Triple Antibiotic and Pain Relief Maximum Strength; Triple Antibiotic plus Pain Relief Maximum Strength; Triple Antibiotic plus pain relief; Triple Antibiotic with Pain Relief; Triple Antibiotic with Pain Relief Maximum Strength; Triple Antiobiotic; Tripleantibioticapainscaritch; Tripleantibioticointmentandpainrelief; UEC Medical First Aid Antibiotic; ULTRA SEAL Triple Antibiotic; Up and Up Antibiotic; Up and Up Antibiotic Plus Pain Relief; Up and Up First Aid Antibiotic Pain Relieving; Up and Up multi action antibiotic; WELL AT WALG TRIPLE ANTIBIOTIC Well at Walgreens; Wal-Sporin; Walgreens Maximum Strength Triple Antibiotic With Pain Relief; Walgreens Triple Antibiotic; Walgreens Wal-Sporin First Aid Antibiotic; WalgreensTriple Antibiotic; Water-Jel 3-in-1 Antibiotic; Welly Adventure First Aid Kit; Welly Bravery First Aid Kit; Welly Bravery Triple Antibiotic; Welly Bravery Triple Antibiotic with Pain Relief; Welly Human Repair Kit; Welly Quick Fix Kit; Welly Superhero Supplies Kit; Western Family Antibiotic Plus Pain Relief; Western Family Triple Antibiotic; Western Family Triple Antibiotic plus Pain Relief; WinCo Maximum Strength Triple Antibiotic; WinCo Original Strength Triple Antibiotic; meijer Antibiotic Plus Pain Relief; meijer Triple Antibiotic; meijer Triple Antibiotic plus Pain Relief

> <INTERNATIONAL_BRANDS>
Aerosporin; Metamyxin; Polomyxin B; Poly-Rx; Polyfax; Polyxx

> <SALTS>
Polymyxin B sulfate

$$$$
2022
  -OEChem-07121917233D

 27 28  0     0  0  0  0  0  0999 V2000
    2.5840    0.3522    0.0637 O   0  0  0  0  0  0  0  0  0  0  0  0
   -3.7999    0.9358   -0.9813 O   0  0  0  0  0  0  0  0  0  0  0  0
    4.2188   -1.4320   -1.3409 O   0  0  0  0  0  0  0  0  0  0  0  0
    0.4335    0.9970    0.6027 N   0  0  0  0  0  0  0  0  0  0  0  0
   -0.6945   -1.1578    0.5860 N   0  0  0  0  0  0  0  0  0  0  0  0
   -1.2428    2.2145   -0.2604 N   0  0  0  0  0  0  0  0  0  0  0  0
   -2.9368   -1.0947   -0.2715 N   0  0  0  0  0  0  0  0  0  0  0  0
   -1.9471   -3.0975    0.4806 N   0  0  0  0  0  0  0  0  0  0  0  0
   -0.6018    0.1571    0.3712 C   0  0  0  0  0  0  0  0  0  0  0  0
    1.7296    0.6821    1.1503 C   0  0  0  0  0  0  0  0  0  0  0  0
   -1.6158    0.9044   -0.1528 C   0  0  0  0  0  0  0  0  0  0  0  0
   -0.0043    2.2397    0.2026 C   0  0  0  0  0  0  0  0  0  0  0  0
   -2.8759    0.2839   -0.5102 C   0  0  0  0  0  0  0  0  0  0  0  0
   -1.9089   -1.7472    0.2401 C   0  0  0  0  0  0  0  0  0  0  0  0
    3.8997    0.0529    0.5095 C   0  0  0  0  0  0  0  0  0  0  0  0
    4.7623   -0.2903   -0.6896 C   0  0  0  0  0  0  0  0  0  0  0  0
    2.1002    1.5632    1.6855 H   0  0  0  0  0  0  0  0  0  0  0  0
    1.6282   -0.1595    1.8433 H   0  0  0  0  0  0  0  0  0  0  0  0
    0.6218    3.1189    0.2712 H   0  0  0  0  0  0  0  0  0  0  0  0
    0.0582   -1.7177    0.9727 H   0  0  0  0  0  0  0  0  0  0  0  0
    4.3205    0.9164    1.0361 H   0  0  0  0  0  0  0  0  0  0  0  0
    3.8558   -0.8035    1.1923 H   0  0  0  0  0  0  0  0  0  0  0  0
    5.7866   -0.5200   -0.3834 H   0  0  0  0  0  0  0  0  0  0  0  0
    4.7811    0.5309   -1.4130 H   0  0  0  0  0  0  0  0  0  0  0  0
   -1.1514   -3.5877    0.8742 H   0  0  0  0  0  0  0  0  0  0  0  0
   -2.7753   -3.6443    0.2717 H   0  0  0  0  0  0  0  0  0  0  0  0
    3.3044   -1.2166   -1.5928 H   0  0  0  0  0  0  0  0  0  0  0  0
  1 10  1  0  0  0  0
  1 15  1  0  0  0  0
  2 13  2  0  0  0  0
  3 16  1  0  0  0  0
  3 27  1  0  0  0  0
  4  9  1  0  0  0  0
  4 10  1  0  0  0  0
  4 12  1  0  0  0  0
  5  9  1  0  0  0  0
  5 14  1  0  0  0  0
  5 20  1  0  0  0  0
  6 11  1  0  0  0  0
  6 12  2  0  0  0  0
  7 13  1  0  0  0  0
  7 14  2  0  0  0  0
  8 14  1  0  0  0  0
  8 25  1  0  0  0  0
  8 26  1  0  0  0  0
  9 11  2  0  0  0  0
 10 17  1  0  0  0  0
 10 18  1  0  0  0  0
 11 13  1  0  0  0  0
 12 19  1  0  0  0  0
 15 16  1  0  0  0  0
 15 21  1  0  0  0  0
 15 22  1  0  0  0  0
 16 23  1  0  0  0  0
 16 24  1  0  0  0  0
M  END
> <DATABASE_ID>
DB00787

> <DATABASE_NAME>
drugbank

> <ORIGINAL_SOURCE>
PUBCHEM

> <ORIGINAL_SOURCE_URL>
https://pubchem.ncbi.nlm.nih.gov/rest/pug/compound/inchikey/MKUXAQIIEYXACX-UHFFFAOYSA-N/SDF?record_type=3d

> <SMILES>
NC1=NC(=O)C2=C(N1)N(COCCO)C=N2

> <INCHI_IDENTIFIER>
InChI=1S/C8H11N5O3/c9-8-11-6-5(7(15)12-8)10-3-13(6)4-16-2-1-14/h3,14H,1-2,4H2,(H3,9,11,12,15)

> <INCHI_KEY>
MKUXAQIIEYXACX-UHFFFAOYSA-N

> <FORMULA>
C8H11N5O3

> <MOLECULAR_WEIGHT>
225.2046

> <EXACT_MASS>
225.086189243

> <JCHEM_ACCEPTOR_COUNT>
7

> <JCHEM_ATOM_COUNT>
27

> <JCHEM_AVERAGE_POLARIZABILITY>
21.507933725133036

> <JCHEM_BIOAVAILABILITY>
1

> <JCHEM_DONOR_COUNT>
3

> <JCHEM_FORMAL_CHARGE>
0

> <JCHEM_GHOSE_FILTER>
0

> <JCHEM_IUPAC>
2-amino-9-[(2-hydroxyethoxy)methyl]-6,9-dihydro-3H-purin-6-one

> <ALOGPS_LOGP>
-0.95

> <JCHEM_LOGP>
-1.0319567660000002

> <ALOGPS_LOGS>
-1.39

> <JCHEM_MDDR_LIKE_RULE>
0

> <JCHEM_NUMBER_OF_RINGS>
2

> <JCHEM_PHYSIOLOGICAL_CHARGE>
0

> <JCHEM_PKA>
15.117578228426233

> <JCHEM_PKA_STRONGEST_ACIDIC>
11.984859791921778

> <JCHEM_PKA_STRONGEST_BASIC>
3.0163894181545694

> <JCHEM_POLAR_SURFACE_AREA>
114.75999999999999

> <JCHEM_REFRACTIVITY>
54.6334

> <JCHEM_ROTATABLE_BOND_COUNT>
4

> <JCHEM_RULE_OF_FIVE>
1

> <ALOGPS_SOLUBILITY>
9.08e+00 g/l

> <JCHEM_TRADITIONAL_IUPAC>
aciclovir

> <JCHEM_VEBER_RULE>
0

$$$$
798
  Mrv0541 02231215002D          

 33 35  0  0  1  0            999 V2000
    4.9509   -1.9904    0.0000 O   0  0  0  0  0  0  0  0  0  0  0  0
    6.3799    0.4847    0.0000 O   0  0  0  0  0  0  0  0  0  0  0  0
    4.9509   -0.3403    0.0000 O   0  0  0  0  0  0  0  0  0  0  0  0
    4.2365   -0.7528    0.0000 O   0  0  0  0  0  0  0  0  0  0  0  0
    7.6175    1.1992    0.0000 O   0  0  0  0  0  0  0  0  0  0  0  0
    3.5220   -2.8154    0.0000 O   0  0  0  0  0  0  0  0  0  0  0  0
    2.3950   -0.0384    0.0000 O   0  0  0  0  0  0  0  0  0  0  0  0
    6.3799   -2.8154    0.0000 N   0  0  0  0  0  0  0  0  0  0  0  0
    7.9194   -0.7528    0.0000 N   0  0  0  0  0  0  0  0  0  0  0  0
    2.0930   -1.9904    0.0000 N   0  0  0  0  0  0  0  0  0  0  0  0
    5.5549    1.9136    0.0000 N   0  0  0  0  0  0  0  0  0  0  0  0
    9.2675    2.6282    0.0000 N   0  0  0  0  0  0  0  0  0  0  0  0
    5.6655   -1.5778    0.0000 C   0  0  0  0  0  0  0  0  0  0  0  0
    6.3799   -0.3403    0.0000 C   0  0  0  0  0  0  0  0  0  0  0  0
    5.6655   -0.7528    0.0000 C   0  0  0  0  0  0  0  0  0  0  0  0
    6.3799   -1.9904    0.0000 C   0  0  0  0  0  0  0  0  0  0  0  0
    7.0944   -0.7528    0.0000 C   0  0  0  0  0  0  0  0  0  0  0  0
    7.0944   -1.5778    0.0000 C   0  0  0  0  0  0  0  0  0  0  0  0
    4.2365   -1.5778    0.0000 C   0  0  0  0  0  0  0  0  0  0  0  0
    2.8075   -1.5778    0.0000 C   0  0  0  0  0  0  0  0  0  0  0  0
    3.5220   -1.9904    0.0000 C   0  0  0  0  0  0  0  0  0  0  0  0
    6.7925    1.1992    0.0000 C   0  0  0  0  0  0  0  0  0  0  0  0
    2.8075   -0.7528    0.0000 C   0  0  0  0  0  0  0  0  0  0  0  0
    6.3799    1.9136    0.0000 C   0  0  0  0  0  0  0  0  0  0  0  0
    8.0300    1.9136    0.0000 C   0  0  0  0  0  0  0  0  0  0  0  0
    6.7925    2.6282    0.0000 C   0  0  0  0  0  0  0  0  0  0  0  0
    3.5220   -0.3403    0.0000 C   0  0  0  0  0  0  0  0  0  0  0  0
    7.6175    2.6282    0.0000 C   0  0  0  0  0  0  0  0  0  0  0  0
    8.8550    1.9136    0.0000 C   0  0  0  0  0  0  0  0  0  0  0  0
    1.9825   -0.7528    0.0000 C   0  0  0  0  0  0  0  0  0  0  0  0
    9.2675    1.1992    0.0000 C   0  0  0  0  0  0  0  0  0  0  0  0
    2.0930   -2.8154    0.0000 C   0  0  0  0  0  0  0  0  0  0  0  0
   10.0925    2.6282    0.0000 C   0  0  0  0  0  0  0  0  0  0  0  0
  1 13  1  0  0  0  0
  1 19  1  0  0  0  0
  2 14  1  0  0  0  0
  2 22  1  0  0  0  0
  3 15  1  0  0  0  0
  4 19  1  0  0  0  0
  4 27  1  0  0  0  0
  5 22  1  0  0  0  0
  5 25  1  0  0  0  0
  6 21  1  0  0  0  0
  7 23  1  0  0  0  0
  8 16  1  0  0  0  0
  9 17  1  0  0  0  0
 10 20  1  0  0  0  0
 10 32  1  0  0  0  0
 11 24  1  0  0  0  0
 12 29  1  0  0  0  0
 12 33  1  0  0  0  0
 13 15  1  0  0  0  0
 13 16  1  0  0  0  0
 14 15  1  0  0  0  0
 14 17  1  0  0  0  0
 16 18  1  0  0  0  0
 17 18  1  0  0  0  0
 19 21  1  0  0  0  0
 20 21  1  0  0  0  0
 20 23  1  0  0  0  0
 22 24  1  0  0  0  0
 23 27  1  0  0  0  0
 23 30  1  0  0  0  0
 24 26  1  0  0  0  0
 25 28  1  0  0  0  0
 25 29  1  0  0  0  0
 26 28  1  0  0  0  0
 29 31  1  0  0  0  0
M  END
> <DATABASE_ID>
DB00798

> <DATABASE_NAME>
drugbank

> <SMILES>
CNC(C)C1CCC(N)C(OC2C(N)CC(N)C(OC3OCC(C)(O)C(NC)C3O)C2O)O1

> <INCHI_IDENTIFIER>
InChI=1S/C21H43N5O7/c1-9(25-3)13-6-5-10(22)19(31-13)32-16-11(23)7-12(24)17(14(16)27)33-20-15(28)18(26-4)21(2,29)8-30-20/h9-20,25-29H,5-8,22-24H2,1-4H3

> <INCHI_KEY>
CEAZRRDELHUEMR-UHFFFAOYSA-N

> <FORMULA>
C21H43N5O7

> <MOLECULAR_WEIGHT>
477.5954

> <EXACT_MASS>
477.316248755

> <JCHEM_ACCEPTOR_COUNT>
12

> <JCHEM_AVERAGE_POLARIZABILITY>
51.923795808054095

> <JCHEM_BIOAVAILABILITY>
0

> <JCHEM_DONOR_COUNT>
8

> <JCHEM_FORMAL_CHARGE>
0

> <JCHEM_GHOSE_FILTER>
0

> <JCHEM_IUPAC>
2-{[4,6-diamino-3-({3-amino-6-[1-(methylamino)ethyl]oxan-2-yl}oxy)-2-hydroxycyclohexyl]oxy}-5-methyl-4-(methylamino)oxane-3,5-diol

> <ALOGPS_LOGP>
-1.64

> <JCHEM_LOGP>
-3.1371555293333344

> <ALOGPS_LOGS>
-1.58

> <JCHEM_MDDR_LIKE_RULE>
1

> <JCHEM_NUMBER_OF_RINGS>
3

> <JCHEM_PHYSIOLOGICAL_CHARGE>
5

> <JCHEM_PKA>
13.159419991605812

> <JCHEM_PKA_STRONGEST_ACIDIC>
12.5491782180648

> <JCHEM_PKA_STRONGEST_BASIC>
10.183710185453362

> <JCHEM_POLAR_SURFACE_AREA>
199.73000000000002

> <JCHEM_REFRACTIVITY>
118.02069999999998

> <JCHEM_ROTATABLE_BOND_COUNT>
7

> <JCHEM_RULE_OF_FIVE>
0

> <ALOGPS_SOLUBILITY>
1.26e+01 g/l

> <JCHEM_TRADITIONAL_IUPAC>
gentamicin

> <JCHEM_VEBER_RULE>
0

> <DRUGBANK_ID>
DB00798

> <SECONDARY_ACCESSION_NUMBERS>
APRD00214

> <DRUG_GROUPS>
approved; vet_approved

> <GENERIC_NAME>
Gentamicin

> <SYNONYMS>
Gentamicin; Gentamicina

> <PRODUCTS>
Alcomicin Oph Sol 3mg/ml; Amolg A; Betamycin Ophthalmic/otic Solution; Celestone-G; Cidomycin Inj 10mg/ml; Cidomycin Inj 40mg/ml; Cidomycin Inj Pediatric 10mg; Diprogen Cream; Diprogen Ointment; Dom-gentamicin-betamethasone; Garamycin; Garamycin Cream 0.1%; Garamycin Gentamicin Sulfate; Garamycin Inj 10mg/ml Pediatric; Garamycin Inj 40mg/ml; Garamycin Ont 0.1%; Garamycin Ophthalmic Drops 0.3%; Garamycin Ophthalmic Ointment 0.3%; Garamycin Otic Drops 0.3%; Garasone Ophthalmic Ointment; Garasone Ophthalmic and Otic Solution; Garatec Ophthalmic Dps 5mg/ml; Garatec Otic Dps 5mg/ml; Gentacidin Oph Soln 3mg/ml; Gentacidin Ophthalmic Solution 3mg/ml; Gentak; Gentamicin; Gentamicin Injection USP; Gentamicin Sulfate; Gentamicin Sulfate Cream 0.1%; Gentamicin Sulfate In 0.9% Sodium Chloride Injection; Gentamicin Sulfate In Nacl 0.9% Inj; Gentamicin Sulfate In Nacl O.9% Inj; Gentamicin Sulfate In Sodium Chloride; Gentamicin Sulfate in Sodium Chloride; Gentamicin Sulphate 0.3% - Liq Oph; Gentamicin Sulphate Injection USP-10mg/ml; Gentamicin Sulphate Injection USP-40mg/ml; Gentamicin sulfate; Gentamicin(e); Gentamicin(e) 120mg Liq IV 1.2mg/ml; Gentrasul Liq 3mg/ml; Gentrasul Oph Ointment 3mg/gm; Minims Gentamicin Sulfate 0.3%; Ocugram Liq 3mg/ml; Ocugram Ont 3mg/gm; Odan-gentamicin; PMS-gentamicin Cream 1mg/gm; PMS-gentamicin Ointment 1mg/gm; PMS-gentamicin Ophthalmic Ointment 0.3%; PMS-gentamicin Otic Drops 0.3%; PMS-gentamicin Sulfate Oph Dps 0.3%; PMS-gentamicin-betamethasone; Pred-G; R.O.-gentycin; Ratio-gentamicin; Sandoz Gentamicin; Sandoz Pentasone; Septopal; Valisone-G Cream; Valisone-G Ointment

> <INTERNATIONAL_BRANDS>
Alcomicin; Bristagen; G-Mycin; Genoptic; Gentacidin; Gentafair; Gentamar; Jenamicin; Ocu-Mycin; Spectro-Genta; U-gencin

> <SALTS>
Gentamicin sulfate

$$$$
287180
  -OEChem-10051719233D

 36 38  0     0  0  0  0  0  0999 V2000
   -2.8632   -2.3202    0.3787 O   0  0  0  0  0  0  0  0  0  0  0  0
   -5.1631   -1.3770   -0.4597 O   0  0  0  0  0  0  0  0  0  0  0  0
   -5.5417    0.7520    0.2845 O   0  0  0  0  0  0  0  0  0  0  0  0
   -1.4207    1.4259   -0.3425 N   0  0  0  0  0  0  0  0  0  0  0  0
    5.9708    0.1747   -0.0725 N   0  0  0  0  0  0  0  0  0  0  0  0
   -0.4920    0.3791   -0.1351 C   0  0  0  0  0  0  0  0  0  0  0  0
   -0.9616   -0.9307    0.1175 C   0  0  0  0  0  0  0  0  0  0  0  0
   -0.9186    2.7732   -0.6013 C   0  0  0  0  0  0  0  0  0  0  0  0
    0.9016    0.5667   -0.1653 C   0  0  0  0  0  0  0  0  0  0  0  0
    1.7843   -0.4977    0.0453 C   0  0  0  0  0  0  0  0  0  0  0  0
   -2.7754    1.1507   -0.2939 C   0  0  0  0  0  0  0  0  0  0  0  0
   -2.4238   -1.1975    0.1628 C   0  0  0  0  0  0  0  0  0  0  0  0
   -3.3295   -0.0450   -0.0642 C   0  0  0  0  0  0  0  0  0  0  0  0
   -0.0771   -1.9972    0.3285 C   0  0  0  0  0  0  0  0  0  0  0  0
    1.2960   -1.7762    0.2916 C   0  0  0  0  0  0  0  0  0  0  0  0
    3.2129   -0.2682    0.0051 C   0  0  0  0  0  0  0  0  0  0  0  0
   -0.7460    3.5258    0.7041 C   0  0  0  0  0  0  0  0  0  0  0  0
   -4.7892   -0.1464   -0.0497 C   0  0  0  0  0  0  0  0  0  0  0  0
    4.0702   -1.2811   -0.4086 C   0  0  0  0  0  0  0  0  0  0  0  0
    3.7315    0.9656    0.3802 C   0  0  0  0  0  0  0  0  0  0  0  0
    5.4291   -1.0113   -0.4294 C   0  0  0  0  0  0  0  0  0  0  0  0
    5.1055    1.1349    0.3242 C   0  0  0  0  0  0  0  0  0  0  0  0
   -0.0125    2.7979   -1.2142 H   0  0  0  0  0  0  0  0  0  0  0  0
   -1.6546    3.3208   -1.2063 H   0  0  0  0  0  0  0  0  0  0  0  0
    1.3065    1.5499   -0.3751 H   0  0  0  0  0  0  0  0  0  0  0  0
   -3.3866    2.0313   -0.4675 H   0  0  0  0  0  0  0  0  0  0  0  0
   -0.4407   -3.0014    0.5287 H   0  0  0  0  0  0  0  0  0  0  0  0
    1.9452   -2.6245    0.4899 H   0  0  0  0  0  0  0  0  0  0  0  0
   -1.6876    3.5785    1.2610 H   0  0  0  0  0  0  0  0  0  0  0  0
   -0.0032    3.0469    1.3501 H   0  0  0  0  0  0  0  0  0  0  0  0
   -0.4125    4.5499    0.5089 H   0  0  0  0  0  0  0  0  0  0  0  0
    3.7308   -2.2557   -0.7419 H   0  0  0  0  0  0  0  0  0  0  0  0
    3.1255    1.7878    0.7446 H   0  0  0  0  0  0  0  0  0  0  0  0
    6.1404   -1.7650   -0.7511 H   0  0  0  0  0  0  0  0  0  0  0  0
    5.5620    2.0757    0.6140 H   0  0  0  0  0  0  0  0  0  0  0  0
   -6.1383   -1.4840   -0.4632 H   0  0  0  0  0  0  0  0  0  0  0  0
  1 12  2  0  0  0  0
  2 18  1  0  0  0  0
  2 36  1  0  0  0  0
  3 18  2  0  0  0  0
  4  6  1  0  0  0  0
  4  8  1  0  0  0  0
  4 11  1  0  0  0  0
  5 21  2  0  0  0  0
  5 22  1  0  0  0  0
  6  7  2  0  0  0  0
  6  9  1  0  0  0  0
  7 12  1  0  0  0  0
  7 14  1  0  0  0  0
  8 17  1  0  0  0  0
  8 23  1  0  0  0  0
  8 24  1  0  0  0  0
  9 10  2  0  0  0  0
  9 25  1  0  0  0  0
 10 15  1  0  0  0  0
 10 16  1  0  0  0  0
 11 13  2  0  0  0  0
 11 26  1  0  0  0  0
 12 13  1  0  0  0  0
 13 18  1  0  0  0  0
 14 15  2  0  0  0  0
 14 27  1  0  0  0  0
 15 28  1  0  0  0  0
 16 19  2  0  0  0  0
 16 20  1  0  0  0  0
 17 29  1  0  0  0  0
 17 30  1  0  0  0  0
 17 31  1  0  0  0  0
 19 21  1  0  0  0  0
 19 32  1  0  0  0  0
 20 22  2  0  0  0  0
 20 33  1  0  0  0  0
 21 34  1  0  0  0  0
 22 35  1  0  0  0  0
M  END
> <DATABASE_ID>
DB00817

> <DATABASE_NAME>
drugbank

> <ORIGINAL_SOURCE>
PUBCHEM

> <ORIGINAL_SOURCE_URL>
https://pubchem.ncbi.nlm.nih.gov/rest/pug/compound/inchikey/XBPZXDSZHPDXQU-UHFFFAOYSA-N/SDF?record_type=3d

> <SMILES>
CCN1C=C(C(O)=O)C(=O)C2=C1C=C(C=C2)C1=CC=NC=C1

> <INCHI_IDENTIFIER>
InChI=1S/C17H14N2O3/c1-2-19-10-14(17(21)22)16(20)13-4-3-12(9-15(13)19)11-5-7-18-8-6-11/h3-10H,2H2,1H3,(H,21,22)

> <INCHI_KEY>
XBPZXDSZHPDXQU-UHFFFAOYSA-N

> <FORMULA>
C17H14N2O3

> <MOLECULAR_WEIGHT>
294.3047

> <EXACT_MASS>
294.100442324

> <JCHEM_ACCEPTOR_COUNT>
5

> <JCHEM_AVERAGE_POLARIZABILITY>
30.80407384119609

> <JCHEM_BIOAVAILABILITY>
1

> <JCHEM_DONOR_COUNT>
1

> <JCHEM_FORMAL_CHARGE>
0

> <JCHEM_GHOSE_FILTER>
1

> <JCHEM_IUPAC>
1-ethyl-4-oxo-7-(pyridin-4-yl)-1,4-dihydroquinoline-3-carboxylic acid

> <ALOGPS_LOGP>
1.85

> <JCHEM_LOGP>
1.8992950124918617

> <ALOGPS_LOGS>
-3.46

> <JCHEM_MDDR_LIKE_RULE>
0

> <JCHEM_NUMBER_OF_RINGS>
3

> <JCHEM_PHYSIOLOGICAL_CHARGE>
-1

> <JCHEM_PKA_STRONGEST_ACIDIC>
6.182001419393908

> <JCHEM_PKA_STRONGEST_BASIC>
4.903894248060616

> <JCHEM_POLAR_SURFACE_AREA>
70.5

> <JCHEM_REFRACTIVITY>
83.05569999999999

> <JCHEM_ROTATABLE_BOND_COUNT>
3

> <JCHEM_RULE_OF_FIVE>
1

> <ALOGPS_SOLUBILITY>
1.02e-01 g/l

> <JCHEM_TRADITIONAL_IUPAC>
rosoxacin

> <JCHEM_VEBER_RULE>
0

$$$$
5284447
  -OEChem-10051719243D

 94 97  0     1  0  0  0  0  0999 V2000
    1.0717   -2.4370   -0.7728 O   0  0  0  0  0  0  0  0  0  0  0  0
   -5.0762   -1.3934   -3.0086 O   0  0  0  0  0  0  0  0  0  0  0  0
    0.0813   -4.5780   -0.6133 O   0  0  0  0  0  0  0  0  0  0  0  0
    0.9329   -2.8276    3.3392 O   0  0  0  0  0  0  0  0  0  0  0  0
    4.5395    0.0750   -1.4944 O   0  0  0  0  0  0  0  0  0  0  0  0
   -3.1709   -3.2724    0.3256 O   0  0  0  0  0  0  0  0  0  0  0  0
    4.8595    1.7851    0.0799 O   0  0  0  0  0  0  0  0  0  0  0  0
    4.1704   -1.9682    2.6359 O   0  0  0  0  0  0  0  0  0  0  0  0
    3.9719   -4.1321    1.9473 O   0  0  0  0  0  0  0  0  0  0  0  0
    6.1130    2.1905   -2.4733 O   0  0  0  0  0  0  0  0  0  0  0  0
    7.8567    3.5299    1.2857 O   0  0  0  0  0  0  0  0  0  0  0  0
   -7.2033    1.8154    0.3056 O   0  0  0  0  0  0  0  0  0  0  0  0
   -7.7652    0.5394    2.1420 O   0  0  0  0  0  0  0  0  0  0  0  0
    8.7052    2.6521   -1.3801 N   0  0  0  0  0  0  0  0  0  0  0  0
   -0.0505   -3.1933   -0.2898 C   0  0  1  0  0  0  0  0  0  0  0  0
    2.3256   -2.7647   -0.1671 C   0  0  2  0  0  0  0  0  0  0  0  0
    2.2811   -2.5098    1.3462 C   0  0  1  0  0  0  0  0  0  0  0  0
   -0.1989   -2.9804    1.2213 C   0  0  0  0  0  0  0  0  0  0  0  0
    1.1001   -3.2482    1.9854 C   0  0  2  0  0  0  0  0  0  0  0  0
   -1.2676   -2.6501   -1.0819 C   0  0  0  0  0  0  0  0  0  0  0  0
   -2.5786   -3.4461   -0.9555 C   0  0  2  0  0  0  0  0  0  0  0  0
   -4.1942   -1.7250   -1.9257 C   0  0  2  0  0  0  0  0  0  0  0  0
   -3.5910   -3.0949   -2.0560 C   0  0  0  0  0  0  0  0  0  0  0  0
    3.4348   -1.9852   -0.9068 C   0  0  0  0  0  0  0  0  0  0  0  0
   -5.6859   -1.5551   -1.7183 C   0  0  1  0  0  0  0  0  0  0  0  0
    3.4560   -0.4557   -0.7280 C   0  0  2  0  0  0  0  0  0  0  0  0
    3.5499   -2.9861    1.9907 C   0  0  0  0  0  0  0  0  0  0  0  0
    5.4870    0.7358   -0.6599 C   0  0  2  0  0  0  0  0  0  0  0  0
    6.6433    1.2876   -1.4984 C   0  0  2  0  0  0  0  0  0  0  0  0
    7.6506    2.0091   -0.5924 C   0  0  2  0  0  0  0  0  0  0  0  0
    6.9461    3.0422    0.3029 C   0  0  1  0  0  0  0  0  0  0  0  0
   -6.1769   -0.4095   -0.9400 C   0  0  0  0  0  0  0  0  0  0  0  0
    5.7462    2.4012    1.0189 C   0  0  1  0  0  0  0  0  0  0  0  0
    2.2017    0.2112   -1.2117 C   0  0  0  0  0  0  0  0  0  0  0  0
    4.9394    3.4356    1.7979 C   0  0  0  0  0  0  0  0  0  0  0  0
   -6.7989   -0.4951    0.2460 C   0  0  0  0  0  0  0  0  0  0  0  0
    1.3653    0.8797   -0.4041 C   0  0  0  0  0  0  0  0  0  0  0  0
   -7.3106    0.6634    1.0129 C   0  0  0  0  0  0  0  0  0  0  0  0
    0.1088    1.4315   -0.8538 C   0  0  0  0  0  0  0  0  0  0  0  0
   -0.7577    2.0301   -0.0237 C   0  0  0  0  0  0  0  0  0  0  0  0
   -7.5684    3.0533    0.9600 C   0  0  1  0  0  0  0  0  0  0  0  0
   -6.6315    4.1469    0.4299 C   0  0  0  0  0  0  0  0  0  0  0  0
   -2.0542    2.5039   -0.4517 C   0  0  0  0  0  0  0  0  0  0  0  0
   -9.0214    3.3631    0.6229 C   0  0  0  0  0  0  0  0  0  0  0  0
   -5.2120    3.8609    0.8376 C   0  0  0  0  0  0  0  0  0  0  0  0
   -2.9476    3.0397    0.3929 C   0  0  0  0  0  0  0  0  0  0  0  0
   -4.2767    3.4256   -0.0194 C   0  0  0  0  0  0  0  0  0  0  0  0
    2.5183   -3.8294   -0.3578 H   0  0  0  0  0  0  0  0  0  0  0  0
    2.1468   -1.4415    1.5528 H   0  0  0  0  0  0  0  0  0  0  0  0
   -0.9810   -3.6279    1.6340 H   0  0  0  0  0  0  0  0  0  0  0  0
   -0.5063   -1.9456    1.4239 H   0  0  0  0  0  0  0  0  0  0  0  0
    1.2925   -4.3284    2.0033 H   0  0  0  0  0  0  0  0  0  0  0  0
   -0.9853   -2.6266   -2.1440 H   0  0  0  0  0  0  0  0  0  0  0  0
   -1.4300   -1.6042   -0.7918 H   0  0  0  0  0  0  0  0  0  0  0  0
   -2.3556   -4.5139   -1.0591 H   0  0  0  0  0  0  0  0  0  0  0  0
   -3.5035   -0.9521   -1.6214 H   0  0  0  0  0  0  0  0  0  0  0  0
   -4.3965   -3.8400   -2.0308 H   0  0  0  0  0  0  0  0  0  0  0  0
   -3.1116   -3.1870   -3.0381 H   0  0  0  0  0  0  0  0  0  0  0  0
    3.3557   -2.2037   -1.9815 H   0  0  0  0  0  0  0  0  0  0  0  0
    4.4150   -2.3781   -0.6063 H   0  0  0  0  0  0  0  0  0  0  0  0
   -6.2825   -2.4538   -1.5944 H   0  0  0  0  0  0  0  0  0  0  0  0
    3.5985   -0.2514    0.3400 H   0  0  0  0  0  0  0  0  0  0  0  0
   -0.1037   -4.6895   -1.5609 H   0  0  0  0  0  0  0  0  0  0  0  0
    5.8849   -0.0074    0.0456 H   0  0  0  0  0  0  0  0  0  0  0  0
    7.1215    0.4695   -2.0504 H   0  0  0  0  0  0  0  0  0  0  0  0
    8.1403    1.2652    0.0494 H   0  0  0  0  0  0  0  0  0  0  0  0
    0.1803   -3.3206    3.7082 H   0  0  0  0  0  0  0  0  0  0  0  0
    6.6090    3.8885   -0.3103 H   0  0  0  0  0  0  0  0  0  0  0  0
   -6.0203    0.5635   -1.3984 H   0  0  0  0  0  0  0  0  0  0  0  0
    6.0896    1.6423    1.7346 H   0  0  0  0  0  0  0  0  0  0  0  0
   -3.9856   -3.8027    0.3485 H   0  0  0  0  0  0  0  0  0  0  0  0
    1.9598    0.0953   -2.2663 H   0  0  0  0  0  0  0  0  0  0  0  0
    4.0512    2.9688    2.2383 H   0  0  0  0  0  0  0  0  0  0  0  0
    4.5780    4.2299    1.1354 H   0  0  0  0  0  0  0  0  0  0  0  0
    5.5223    3.8877    2.6051 H   0  0  0  0  0  0  0  0  0  0  0  0
    5.0037   -2.2593    3.0636 H   0  0  0  0  0  0  0  0  0  0  0  0
    8.3069    3.4004   -1.9461 H   0  0  0  0  0  0  0  0  0  0  0  0
    9.3662    3.1062   -0.7503 H   0  0  0  0  0  0  0  0  0  0  0  0
   -6.9493   -1.4660    0.7097 H   0  0  0  0  0  0  0  0  0  0  0  0
    6.8446    2.4476   -3.0595 H   0  0  0  0  0  0  0  0  0  0  0  0
    1.6057    0.9811    0.6512 H   0  0  0  0  0  0  0  0  0  0  0  0
    7.4675    4.3274    1.6818 H   0  0  0  0  0  0  0  0  0  0  0  0
   -0.1405    1.3069   -1.9052 H   0  0  0  0  0  0  0  0  0  0  0  0
   -0.5133    2.1404    1.0306 H   0  0  0  0  0  0  0  0  0  0  0  0
   -7.4521    2.9634    2.0477 H   0  0  0  0  0  0  0  0  0  0  0  0
   -6.9211    5.1262    0.8281 H   0  0  0  0  0  0  0  0  0  0  0  0
   -6.7049    4.2042   -0.6636 H   0  0  0  0  0  0  0  0  0  0  0  0
   -2.3083    2.3715   -1.5011 H   0  0  0  0  0  0  0  0  0  0  0  0
   -9.1693    3.4206   -0.4611 H   0  0  0  0  0  0  0  0  0  0  0  0
   -9.6786    2.5666    0.9875 H   0  0  0  0  0  0  0  0  0  0  0  0
   -9.3399    4.3086    1.0722 H   0  0  0  0  0  0  0  0  0  0  0  0
   -4.9767    3.9721    1.8937 H   0  0  0  0  0  0  0  0  0  0  0  0
   -2.7008    3.1567    1.4457 H   0  0  0  0  0  0  0  0  0  0  0  0
   -4.5310    3.2970   -1.0687 H   0  0  0  0  0  0  0  0  0  0  0  0
  1 15  1  0  0  0  0
  1 16  1  0  0  0  0
  2 22  1  0  0  0  0
  2 25  1  0  0  0  0
  3 15  1  0  0  0  0
  3 63  1  0  0  0  0
  4 19  1  0  0  0  0
  4 67  1  0  0  0  0
  5 26  1  0  0  0  0
  5 28  1  0  0  0  0
  6 21  1  0  0  0  0
  6 71  1  0  0  0  0
  7 28  1  0  0  0  0
  7 33  1  0  0  0  0
  8 27  1  0  0  0  0
  8 76  1  0  0  0  0
  9 27  2  0  0  0  0
 10 29  1  0  0  0  0
 10 80  1  0  0  0  0
 11 31  1  0  0  0  0
 11 82  1  0  0  0  0
 12 38  1  0  0  0  0
 12 41  1  0  0  0  0
 13 38  2  0  0  0  0
 14 30  1  0  0  0  0
 14 77  1  0  0  0  0
 14 78  1  0  0  0  0
 15 18  1  0  0  0  0
 15 20  1  0  0  0  0
 16 17  1  0  0  0  0
 16 24  1  0  0  0  0
 16 48  1  0  0  0  0
 17 19  1  0  0  0  0
 17 27  1  0  0  0  0
 17 49  1  0  0  0  0
 18 19  1  0  0  0  0
 18 50  1  0  0  0  0
 18 51  1  0  0  0  0
 19 52  1  0  0  0  0
 20 21  1  0  0  0  0
 20 53  1  0  0  0  0
 20 54  1  0  0  0  0
 21 23  1  0  0  0  0
 21 55  1  0  0  0  0
 22 23  1  0  0  0  0
 22 25  1  0  0  0  0
 22 56  1  0  0  0  0
 23 57  1  0  0  0  0
 23 58  1  0  0  0  0
 24 26  1  0  0  0  0
 24 59  1  0  0  0  0
 24 60  1  0  0  0  0
 25 32  1  0  0  0  0
 25 61  1  0  0  0  0
 26 34  1  0  0  0  0
 26 62  1  0  0  0  0
 28 29  1  0  0  0  0
 28 64  1  0  0  0  0
 29 30  1  0  0  0  0
 29 65  1  0  0  0  0
 30 31  1  0  0  0  0
 30 66  1  0  0  0  0
 31 33  1  0  0  0  0
 31 68  1  0  0  0  0
 32 36  2  0  0  0  0
 32 69  1  0  0  0  0
 33 35  1  0  0  0  0
 33 70  1  0  0  0  0
 34 37  2  0  0  0  0
 34 72  1  0  0  0  0
 35 73  1  0  0  0  0
 35 74  1  0  0  0  0
 35 75  1  0  0  0  0
 36 38  1  0  0  0  0
 36 79  1  0  0  0  0
 37 39  1  0  0  0  0
 37 81  1  0  0  0  0
 39 40  2  0  0  0  0
 39 83  1  0  0  0  0
 40 43  1  0  0  0  0
 40 84  1  0  0  0  0
 41 42  1  0  0  0  0
 41 44  1  0  0  0  0
 41 85  1  0  0  0  0
 42 45  1  0  0  0  0
 42 86  1  0  0  0  0
 42 87  1  0  0  0  0
 43 46  2  0  0  0  0
 43 88  1  0  0  0  0
 44 89  1  0  0  0  0
 44 90  1  0  0  0  0
 44 91  1  0  0  0  0
 45 47  2  0  0  0  0
 45 92  1  0  0  0  0
 46 47  1  0  0  0  0
 46 93  1  0  0  0  0
 47 94  1  0  0  0  0
M  END
> <DATABASE_ID>
DB00826

> <DATABASE_NAME>
drugbank

> <ORIGINAL_SOURCE>
PUBCHEM

> <ORIGINAL_SOURCE_URL>
https://pubchem.ncbi.nlm.nih.gov/rest/pug/compound/inchikey/NCXMLFZGDNKEPB-FFPOYIOWSA-N/SDF?record_type=3d

> <SMILES>
[H][C@@]12C[C@H](O)C[C@]3(O)C[C@H](O)[C@@H](C(O)=O)[C@]([H])(C[C@@H](O[C@]4([H])O[C@H](C)[C@@H](O)[C@H](N)[C@@H]4O)\C=C\C=C\C=C\C=C\C[C@@H](C)OC(=O)\C=C\[C@@]1([H])O2)O3

> <INCHI_IDENTIFIER>
InChI=1S/C33H47NO13/c1-18-10-8-6-4-3-5-7-9-11-21(45-32-30(39)28(34)29(38)19(2)44-32)15-25-27(31(40)41)22(36)17-33(42,47-25)16-20(35)14-24-23(46-24)12-13-26(37)43-18/h3-9,11-13,18-25,27-30,32,35-36,38-39,42H,10,14-17,34H2,1-2H3,(H,40,41)/b4-3+,7-5+,8-6+,11-9+,13-12+/t18-,19-,20+,21+,22+,23-,24-,25+,27-,28+,29-,30+,32+,33-/m1/s1

> <INCHI_KEY>
NCXMLFZGDNKEPB-FFPOYIOWSA-N

> <FORMULA>
C33H47NO13

> <MOLECULAR_WEIGHT>
665.733

> <EXACT_MASS>
665.304740577

> <JCHEM_ACCEPTOR_COUNT>
13

> <JCHEM_ATOM_COUNT>
94

> <JCHEM_AVERAGE_POLARIZABILITY>
68.57872875871091

> <JCHEM_BIOAVAILABILITY>
0

> <JCHEM_DONOR_COUNT>
7

> <JCHEM_FORMAL_CHARGE>
0

> <JCHEM_GHOSE_FILTER>
0

> <JCHEM_IUPAC>
(1R,3S,5R,7R,8E,12R,14E,16E,18E,20E,22R,24S,25R,26S)-22-{[(2R,3S,4S,5S,6R)-4-amino-3,5-dihydroxy-6-methyloxan-2-yl]oxy}-1,3,26-trihydroxy-12-methyl-10-oxo-6,11,28-trioxatricyclo[22.3.1.0⁵,⁷]octacosa-8,14,16,18,20-pentaene-25-carboxylic acid

> <ALOGPS_LOGP>
-3.46

> <JCHEM_LOGP>
-1.694913093638562

> <ALOGPS_LOGS>
-3.38

> <JCHEM_MDDR_LIKE_RULE>
0

> <JCHEM_NUMBER_OF_RINGS>
4

> <JCHEM_PHYSIOLOGICAL_CHARGE>
0

> <JCHEM_PKA>
11.830297037788116

> <JCHEM_PKA_STRONGEST_ACIDIC>
3.579739281946898

> <JCHEM_PKA_STRONGEST_BASIC>
9.113107009890703

> <JCHEM_POLAR_SURFACE_AREA>
230.98999999999995

> <JCHEM_REFRACTIVITY>
169.88260000000005

> <JCHEM_ROTATABLE_BOND_COUNT>
3

> <JCHEM_RULE_OF_FIVE>
0

> <ALOGPS_SOLUBILITY>
2.78e-01 g/l

> <JCHEM_TRADITIONAL_IUPAC>
natamycin

> <JCHEM_VEBER_RULE>
0

$$$$
2762
  -OEChem-10051719243D

 29 31  0     0  0  0  0  0  0999 V2000
   -4.0338    0.7196    0.1179 O   0  0  0  0  0  0  0  0  0  0  0  0
   -3.7546   -1.6565   -0.1636 O   0  0  0  0  0  0  0  0  0  0  0  0
    1.3914   -2.4482   -0.1858 O   0  0  0  0  0  0  0  0  0  0  0  0
    4.1343   -0.6797   -1.2156 O   0  0  0  0  0  0  0  0  0  0  0  0
    4.3305   -1.0159    1.0380 O   0  0  0  0  0  0  0  0  0  0  0  0
    0.8121    1.4692    0.2774 N   0  0  0  0  0  0  0  0  0  0  0  0
    2.0786    0.9738    0.2351 N   0  0  0  0  0  0  0  0  0  0  0  0
   -0.3380    0.6741    0.1651 C   0  0  0  0  0  0  0  0  0  0  0  0
   -0.2158   -0.7216   -0.0009 C   0  0  0  0  0  0  0  0  0  0  0  0
   -2.7232    0.3513    0.0924 C   0  0  0  0  0  0  0  0  0  0  0  0
   -1.6411    1.2062    0.2104 C   0  0  0  0  0  0  0  0  0  0  0  0
   -2.5655   -1.0028   -0.0681 C   0  0  0  0  0  0  0  0  0  0  0  0
   -1.3176   -1.5788   -0.1196 C   0  0  0  0  0  0  0  0  0  0  0  0
    0.7104    2.9100    0.4504 C   0  0  0  0  0  0  0  0  0  0  0  0
    1.1412   -1.2632   -0.0466 C   0  0  0  0  0  0  0  0  0  0  0  0
    2.2754   -0.2962    0.0847 C   0  0  0  0  0  0  0  0  0  0  0  0
   -4.6818   -0.5586   -0.0434 C   0  0  0  0  0  0  0  0  0  0  0  0
    0.6912    3.6289   -0.8828 C   0  0  0  0  0  0  0  0  0  0  0  0
    3.7064   -0.7117    0.0550 C   0  0  0  0  0  0  0  0  0  0  0  0
   -1.8378    2.2665    0.3216 H   0  0  0  0  0  0  0  0  0  0  0  0
   -1.2044   -2.6495   -0.2466 H   0  0  0  0  0  0  0  0  0  0  0  0
   -0.1374    3.2073    1.0764 H   0  0  0  0  0  0  0  0  0  0  0  0
    1.5903    3.2623    1.0064 H   0  0  0  0  0  0  0  0  0  0  0  0
   -5.3050   -0.5250   -0.9445 H   0  0  0  0  0  0  0  0  0  0  0  0
   -5.3270   -0.7372    0.8245 H   0  0  0  0  0  0  0  0  0  0  0  0
    1.5850    3.3949   -1.4709 H   0  0  0  0  0  0  0  0  0  0  0  0
   -0.1823    3.3446   -1.4781 H   0  0  0  0  0  0  0  0  0  0  0  0
    0.6595    4.7124   -0.7308 H   0  0  0  0  0  0  0  0  0  0  0  0
    5.0751   -0.9452   -1.2974 H   0  0  0  0  0  0  0  0  0  0  0  0
  1 10  1  0  0  0  0
  1 17  1  0  0  0  0
  2 12  1  0  0  0  0
  2 17  1  0  0  0  0
  3 15  2  0  0  0  0
  4 19  1  0  0  0  0
  4 29  1  0  0  0  0
  5 19  2  0  0  0  0
  6  7  1  0  0  0  0
  6  8  1  0  0  0  0
  6 14  1  0  0  0  0
  7 16  2  0  0  0  0
  8  9  1  0  0  0  0
  8 11  2  0  0  0  0
  9 13  2  0  0  0  0
  9 15  1  0  0  0  0
 10 11  1  0  0  0  0
 10 12  2  0  0  0  0
 11 20  1  0  0  0  0
 12 13  1  0  0  0  0
 13 21  1  0  0  0  0
 14 18  1  0  0  0  0
 14 22  1  0  0  0  0
 14 23  1  0  0  0  0
 15 16  1  0  0  0  0
 16 19  1  0  0  0  0
 17 24  1  0  0  0  0
 17 25  1  0  0  0  0
 18 26  1  0  0  0  0
 18 27  1  0  0  0  0
 18 28  1  0  0  0  0
M  END
> <DATABASE_ID>
DB00827

> <DATABASE_NAME>
drugbank

> <ORIGINAL_SOURCE>
PUBCHEM

> <ORIGINAL_SOURCE_URL>
https://pubchem.ncbi.nlm.nih.gov/rest/pug/compound/inchikey/VDUWPHTZYNWKRN-UHFFFAOYSA-N/SDF?record_type=3d

> <SMILES>
CCN1N=C(C(O)=O)C(=O)C2=CC3=C(OCO3)C=C12

> <INCHI_IDENTIFIER>
InChI=1S/C12H10N2O5/c1-2-14-7-4-9-8(18-5-19-9)3-6(7)11(15)10(13-14)12(16)17/h3-4H,2,5H2,1H3,(H,16,17)

> <INCHI_KEY>
VDUWPHTZYNWKRN-UHFFFAOYSA-N

> <FORMULA>
C12H10N2O5

> <MOLECULAR_WEIGHT>
262.2182

> <EXACT_MASS>
262.05897144

> <JCHEM_ACCEPTOR_COUNT>
7

> <JCHEM_AVERAGE_POLARIZABILITY>
24.72192384473809

> <JCHEM_BIOAVAILABILITY>
1

> <JCHEM_DONOR_COUNT>
1

> <JCHEM_FORMAL_CHARGE>
0

> <JCHEM_GHOSE_FILTER>
1

> <JCHEM_IUPAC>
1-ethyl-4-oxo-1H,4H,7H-[1,3]dioxolo[4,5-g]cinnoline-3-carboxylic acid

> <ALOGPS_LOGP>
1.25

> <JCHEM_LOGP>
1.716116835333333

> <ALOGPS_LOGS>
-2.44

> <JCHEM_MDDR_LIKE_RULE>
0

> <JCHEM_NUMBER_OF_RINGS>
3

> <JCHEM_PHYSIOLOGICAL_CHARGE>
-1

> <JCHEM_PKA_STRONGEST_ACIDIC>
4.930532150363794

> <JCHEM_PKA_STRONGEST_BASIC>
-4.626802411018023

> <JCHEM_POLAR_SURFACE_AREA>
88.43

> <JCHEM_REFRACTIVITY>
73.6022

> <JCHEM_ROTATABLE_BOND_COUNT>
2

> <JCHEM_RULE_OF_FIVE>
1

> <ALOGPS_SOLUBILITY>
9.61e-01 g/l

> <JCHEM_TRADITIONAL_IUPAC>
cinoxacin

> <JCHEM_VEBER_RULE>
0

$$$$

  Mrv1572004111621352D          

 34 37  0  0  0  0            999 V2000
    0.6947   -0.1982    0.0000 C   0  0  1  0  0  0  0  0  0  0  0  0
    0.7047    0.6037    0.0000 C   0  0  2  0  0  0  0  0  0  0  0  0
   -0.0398   -0.6034    0.0000 C   0  0  2  0  0  0  0  0  0  0  0  0
    1.4167   -0.6403    0.0000 C   0  0  1  0  0  0  0  0  0  0  0  0
   -0.0006    1.0215    0.0000 C   0  0  0  0  0  0  0  0  0  0  0  0
    1.4546    1.0457    0.0000 C   0  0  0  0  0  0  0  0  0  0  0  0
    0.7047    1.4287    0.0000 O   0  0  0  0  0  0  0  0  0  0  0  0
   -0.7495   -0.1972    0.0000 C   0  0  1  0  0  0  0  0  0  0  0  0
   -0.0398   -1.4282    0.0000 O   0  0  0  0  0  0  0  0  0  0  0  0
    2.1630   -0.2199    0.0000 C   0  0  0  0  0  0  0  0  0  0  0  0
    1.4167   -1.4651    0.0000 N   0  0  0  0  0  0  0  0  0  0  0  0
   -0.7424    0.6278    0.0000 C   0  0  0  0  0  0  0  0  0  0  0  0
   -0.0006    1.8463    0.0000 O   0  0  0  0  0  0  0  0  0  0  0  0
    2.1694    0.5922    0.0000 C   0  0  0  0  0  0  0  0  0  0  0  0
    1.4546    1.8707    0.0000 O   0  0  0  0  0  0  0  0  0  0  0  0
   -1.4707   -0.6023    0.0000 C   0  0  0  0  0  0  0  0  0  0  0  0
    2.8788   -0.6323    0.0000 O   0  0  0  0  0  0  0  0  0  0  0  0
    2.1243   -1.8727    0.0000 C   0  0  0  0  0  0  0  0  0  0  0  0
    0.6966   -1.8782    0.0000 C   0  0  0  0  0  0  0  0  0  0  0  0
   -1.4412    1.0532    0.0000 C   0  0  0  0  0  0  0  0  0  0  0  0
    2.8854    1.0047    0.0000 C   0  0  0  0  0  0  0  0  0  0  0  0
   -2.1744   -0.1843    0.0000 C   0  0  0  0  0  0  0  0  0  0  0  0
   -2.1744    0.6406    0.0000 C   0  0  0  0  0  0  0  0  0  0  0  0
   -1.4412    1.8782    0.0000 O   0  0  0  0  0  0  0  0  0  0  0  0
    3.6051    0.5877    0.0000 N   0  0  0  0  0  0  0  0  0  0  0  0
    2.8854    1.8248    0.0000 O   0  0  0  0  0  0  0  0  0  0  0  0
   -2.8908   -0.5853    0.0000 C   0  0  0  0  0  0  0  0  0  0  0  0
   -2.8592    1.0532    0.0000 C   0  0  0  0  0  0  0  0  0  0  0  0
   -3.6051   -0.1740    0.0000 C   0  0  0  0  0  0  0  0  0  0  0  0
   -3.6051    0.6522    0.0000 C   0  0  0  0  0  0  0  0  0  0  0  0
   -2.8592    1.8780    0.0000 O   0  0  0  0  0  0  0  0  0  0  0  0
    0.6947   -1.0228    0.0000 H   0  0  0  0  0  0  0  0  0  0  0  0
   -0.7495   -1.0221    0.0000 H   0  0  0  0  0  0  0  0  0  0  0  0
   -1.4806   -1.4271    0.0000 C   0  0  0  0  0  0  0  0  0  0  0  0
  1  2  1  0  0  0  0
  1  3  1  0  0  0  0
  1  4  1  0  0  0  0
  2  5  1  0  0  0  0
  2  6  1  0  0  0  0
  2  7  1  1  0  0  0
  3  8  1  0  0  0  0
  3  9  1  1  0  0  0
  4 10  1  0  0  0  0
  4 11  1  1  0  0  0
  5 12  2  0  0  0  0
  5 13  1  0  0  0  0
  6 14  1  0  0  0  0
  6 15  2  0  0  0  0
  8 16  1  0  0  0  0
 10 17  1  0  0  0  0
 11 18  1  0  0  0  0
 11 19  1  0  0  0  0
 12 20  1  0  0  0  0
 14 21  1  0  0  0  0
 16 22  1  0  0  0  0
 20 23  1  0  0  0  0
 20 24  2  0  0  0  0
 21 25  1  0  0  0  0
 21 26  2  0  0  0  0
 22 27  1  0  0  0  0
 23 28  1  0  0  0  0
 27 29  2  0  0  0  0
 28 30  2  0  0  0  0
 28 31  1  0  0  0  0
  8 12  1  0  0  0  0
 10 14  2  0  0  0  0
 22 23  2  0  0  0  0
 29 30  1  0  0  0  0
  1 32  1  1  0  0  0
  8 33  1  1  0  0  0
 16 34  2  0  0  0  0
M  END
> <DATABASE_ID>
DB00931

> <DATABASE_NAME>
drugbank

> <SMILES>
[H][C@@]12[C@@H](O)[C@]3([H])C(=C)C4=C(C(O)=CC=C4)C(=O)C3=C(O)[C@]1(O)C(=O)C(C(N)=O)=C(O)[C@H]2N(C)C

> <INCHI_IDENTIFIER>
InChI=1S/C22H22N2O8/c1-7-8-5-4-6-9(25)11(8)16(26)12-10(7)17(27)14-15(24(2)3)18(28)13(21(23)31)20(30)22(14,32)19(12)29/h4-6,10,14-15,17,25,27-29,32H,1H2,2-3H3,(H2,23,31)/t10-,14-,15+,17+,22+/m1/s1

> <INCHI_KEY>
MHIGBKBJSQVXNH-IWVLMIASSA-N

> <FORMULA>
C22H22N2O8

> <MOLECULAR_WEIGHT>
442.424

> <EXACT_MASS>
442.137615676

> <JCHEM_ACCEPTOR_COUNT>
9

> <JCHEM_ATOM_COUNT>
54

> <JCHEM_AVERAGE_POLARIZABILITY>
41.95263210043263

> <JCHEM_BIOAVAILABILITY>
1

> <JCHEM_DONOR_COUNT>
6

> <JCHEM_FORMAL_CHARGE>
0

> <JCHEM_GHOSE_FILTER>
0

> <JCHEM_IUPAC>
(4S,4aR,5S,5aR,12aS)-4-(dimethylamino)-3,5,10,12,12a-pentahydroxy-6-methylidene-1,11-dioxo-1,4,4a,5,5a,6,11,12a-octahydrotetracene-2-carboxamide

> <ALOGPS_LOGP>
-0.46

> <JCHEM_LOGP>
-3.50773220089989

> <ALOGPS_LOGS>
-2.59

> <JCHEM_MDDR_LIKE_RULE>
0

> <JCHEM_NUMBER_OF_RINGS>
4

> <JCHEM_PHYSIOLOGICAL_CHARGE>
0

> <JCHEM_PKA>
7.990364362567775

> <JCHEM_PKA_STRONGEST_ACIDIC>
2.8770159010201826

> <JCHEM_PKA_STRONGEST_BASIC>
7.439599869050888

> <JCHEM_POLAR_SURFACE_AREA>
181.62

> <JCHEM_REFRACTIVITY>
113.66939999999995

> <JCHEM_ROTATABLE_BOND_COUNT>
2

> <JCHEM_RULE_OF_FIVE>
0

> <ALOGPS_SOLUBILITY>
1.14e+00 g/l

> <JCHEM_TRADITIONAL_IUPAC>
methacycline

> <JCHEM_VEBER_RULE>
0

> <DRUGBANK_ID>
DB00931

> <SECONDARY_ACCESSION_NUMBERS>
APRD00137

> <DRUG_GROUPS>
approved; investigational

> <GENERIC_NAME>
Metacycline

> <SYNONYMS>
6-Demethyl-6-deoxy-5-hydroxy-6-methylenetetracycline; 6-Deoxy-6-demethyl-6-methylene-5-oxytetracycline; 6-Methylene-5-hydroxytetracycline; 6-Methylene-5-oxytetracycline; 6-Methyleneoxytetracycline; Metaciclina; Metacycline; Methacycline; Methacyclinum; Methylenecycline; Tri-methacycline

> <SALTS>
Metacycline hydrochloride

$$$$
656511
  -OEChem-10051719263D

 61 64  0     1  0  0  0  0  0999 V2000
    3.3288    0.3111   -1.2972 S   0  0  0  0  0  0  0  0  0  0  0  0
   -7.0782   -1.2957   -1.2412 S   0  0  0  0  0  0  0  0  0  0  0  0
    4.0995   -2.0182    2.3624 O   0  0  0  0  0  0  0  0  0  0  0  0
    7.7699   -0.3629    0.7040 O   0  0  0  0  0  0  0  0  0  0  0  0
    7.1185   -2.1547   -0.5456 O   0  0  0  0  0  0  0  0  0  0  0  0
    0.0214   -1.1637   -0.9176 O   0  0  0  0  0  0  0  0  0  0  0  0
   -2.6990    0.8796    2.6268 O   0  0  0  0  0  0  0  0  0  0  0  0
   -3.9568   -0.9458   -1.0647 O   0  0  0  0  0  0  0  0  0  0  0  0
   -6.3177   -1.9663   -2.2833 O   0  0  0  0  0  0  0  0  0  0  0  0
   -8.2778   -1.9047   -0.6897 O   0  0  0  0  0  0  0  0  0  0  0  0
    4.5305   -1.5167    0.0967 N   0  0  0  0  0  0  0  0  0  0  0  0
    1.4993   -0.9201    0.8541 N   0  0  0  0  0  0  0  0  0  0  0  0
   -1.9216    0.0951    0.5987 N   0  0  0  0  0  0  0  0  0  0  0  0
   -4.2105   -0.0414    1.1152 N   0  0  0  0  0  0  0  0  0  0  0  0
   -6.0430   -0.8436    0.0147 N   0  0  0  0  0  0  0  0  0  0  0  0
    3.3812   -1.4523   -0.8110 C   0  0  1  0  0  0  0  0  0  0  0  0
    5.1802    0.4476   -1.1465 C   0  0  0  0  0  0  0  0  0  0  0  0
    5.5152   -0.4545    0.0608 C   0  0  2  0  0  0  0  0  0  0  0  0
    2.5023   -1.8685    0.3765 C   0  0  1  0  0  0  0  0  0  0  0  0
    3.8085   -1.8834    1.1955 C   0  0  0  0  0  0  0  0  0  0  0  0
    5.5508    1.9063   -0.8726 C   0  0  0  0  0  0  0  0  0  0  0  0
    5.7972   -0.0111   -2.4748 C   0  0  0  0  0  0  0  0  0  0  0  0
    6.8624   -1.1025    0.0206 C   0  0  0  0  0  0  0  0  0  0  0  0
    0.3225   -0.6425    0.1546 C   0  0  0  0  0  0  0  0  0  0  0  0
   -0.5339    0.4176    0.8351 C   0  0  1  0  0  0  0  0  0  0  0  0
   -0.1892    1.8091    0.3584 C   0  0  0  0  0  0  0  0  0  0  0  0
   -2.9184    0.3561    1.5317 C   0  0  0  0  0  0  0  0  0  0  0  0
   -5.3440    0.0812    2.0308 C   0  0  0  0  0  0  0  0  0  0  0  0
   -6.6036   -0.1714    1.2059 C   0  0  0  0  0  0  0  0  0  0  0  0
   -4.6303   -0.6466   -0.0897 C   0  0  0  0  0  0  0  0  0  0  0  0
    0.7915    2.5495    1.0186 C   0  0  0  0  0  0  0  0  0  0  0  0
   -0.8511    2.3534   -0.7422 C   0  0  0  0  0  0  0  0  0  0  0  0
    1.1101    3.8342    0.5784 C   0  0  0  0  0  0  0  0  0  0  0  0
   -0.5325    3.6381   -1.1824 C   0  0  0  0  0  0  0  0  0  0  0  0
   -7.5302    0.3091   -1.8590 C   0  0  0  0  0  0  0  0  0  0  0  0
    0.4481    4.3784   -0.5220 C   0  0  0  0  0  0  0  0  0  0  0  0
    3.4484   -2.1709   -1.6329 H   0  0  0  0  0  0  0  0  0  0  0  0
    5.4180    0.0946    1.0076 H   0  0  0  0  0  0  0  0  0  0  0  0
    2.0768   -2.8747    0.2752 H   0  0  0  0  0  0  0  0  0  0  0  0
    5.0787    2.2825    0.0425 H   0  0  0  0  0  0  0  0  0  0  0  0
    5.2504    2.5616   -1.6985 H   0  0  0  0  0  0  0  0  0  0  0  0
    6.6344    2.0130   -0.7480 H   0  0  0  0  0  0  0  0  0  0  0  0
    5.5684   -1.0584   -2.7015 H   0  0  0  0  0  0  0  0  0  0  0  0
    6.8885    0.0896   -2.4553 H   0  0  0  0  0  0  0  0  0  0  0  0
    5.4391    0.5977   -3.3137 H   0  0  0  0  0  0  0  0  0  0  0  0
    1.6574   -0.4257    1.7290 H   0  0  0  0  0  0  0  0  0  0  0  0
   -0.3709    0.3628    1.9192 H   0  0  0  0  0  0  0  0  0  0  0  0
    8.6613   -0.7718    0.6893 H   0  0  0  0  0  0  0  0  0  0  0  0
   -2.1755   -0.3209   -0.2916 H   0  0  0  0  0  0  0  0  0  0  0  0
   -5.2207   -0.6810    2.8091 H   0  0  0  0  0  0  0  0  0  0  0  0
   -5.3479    1.0628    2.5155 H   0  0  0  0  0  0  0  0  0  0  0  0
   -7.3177   -0.8000    1.7428 H   0  0  0  0  0  0  0  0  0  0  0  0
   -7.0666    0.7800    0.9307 H   0  0  0  0  0  0  0  0  0  0  0  0
    1.3159    2.1370    1.8764 H   0  0  0  0  0  0  0  0  0  0  0  0
   -1.6083    1.7970   -1.2873 H   0  0  0  0  0  0  0  0  0  0  0  0
    1.8745    4.4101    1.0917 H   0  0  0  0  0  0  0  0  0  0  0  0
   -1.0449    4.0608   -2.0416 H   0  0  0  0  0  0  0  0  0  0  0  0
   -6.6250    0.8585   -2.1245 H   0  0  0  0  0  0  0  0  0  0  0  0
   -8.1130    0.8434   -1.1078 H   0  0  0  0  0  0  0  0  0  0  0  0
   -8.1417    0.1607   -2.7523 H   0  0  0  0  0  0  0  0  0  0  0  0
    0.6972    5.3781   -0.8656 H   0  0  0  0  0  0  0  0  0  0  0  0
  1 16  1  0  0  0  0
  1 17  1  0  0  0  0
  2  9  2  0  0  0  0
  2 10  2  0  0  0  0
  2 15  1  0  0  0  0
  2 35  1  0  0  0  0
  3 20  2  0  0  0  0
  4 23  1  0  0  0  0
  4 48  1  0  0  0  0
  5 23  2  0  0  0  0
  6 24  2  0  0  0  0
  7 27  2  0  0  0  0
  8 30  2  0  0  0  0
 11 16  1  0  0  0  0
 11 18  1  0  0  0  0
 11 20  1  0  0  0  0
 12 19  1  0  0  0  0
 12 24  1  0  0  0  0
 12 46  1  0  0  0  0
 13 25  1  0  0  0  0
 13 27  1  0  0  0  0
 13 49  1  0  0  0  0
 14 27  1  0  0  0  0
 14 28  1  0  0  0  0
 14 30  1  0  0  0  0
 15 29  1  0  0  0  0
 15 30  1  0  0  0  0
 16 19  1  0  0  0  0
 16 37  1  0  0  0  0
 17 18  1  0  0  0  0
 17 21  1  0  0  0  0
 17 22  1  0  0  0  0
 18 23  1  0  0  0  0
 18 38  1  0  0  0  0
 19 20  1  0  0  0  0
 19 39  1  0  0  0  0
 21 40  1  0  0  0  0
 21 41  1  0  0  0  0
 21 42  1  0  0  0  0
 22 43  1  0  0  0  0
 22 44  1  0  0  0  0
 22 45  1  0  0  0  0
 24 25  1  0  0  0  0
 25 26  1  0  0  0  0
 25 47  1  0  0  0  0
 26 31  2  0  0  0  0
 26 32  1  0  0  0  0
 28 29  1  0  0  0  0
 28 50  1  0  0  0  0
 28 51  1  0  0  0  0
 29 52  1  0  0  0  0
 29 53  1  0  0  0  0
 31 33  1  0  0  0  0
 31 54  1  0  0  0  0
 32 34  2  0  0  0  0
 32 55  1  0  0  0  0
 33 36  2  0  0  0  0
 33 56  1  0  0  0  0
 34 36  1  0  0  0  0
 34 57  1  0  0  0  0
 35 58  1  0  0  0  0
 35 59  1  0  0  0  0
 35 60  1  0  0  0  0
 36 61  1  0  0  0  0
M  END
> <DATABASE_ID>
DB00948

> <DATABASE_NAME>
drugbank

> <ORIGINAL_SOURCE>
PUBCHEM

> <ORIGINAL_SOURCE_URL>
https://pubchem.ncbi.nlm.nih.gov/rest/pug/compound/inchikey/YPBATNHYBCGSSN-VWPFQQQWSA-N/SDF?record_type=3d

> <SMILES>
[H][C@]12SC(C)(C)[C@@H](N1C(=O)[C@H]2NC(=O)[C@H](NC(=O)N1CCN(C1=O)S(C)(=O)=O)C1=CC=CC=C1)C(O)=O

> <INCHI_IDENTIFIER>
InChI=1S/C21H25N5O8S2/c1-21(2)14(18(29)30)26-16(28)13(17(26)35-21)22-15(27)12(11-7-5-4-6-8-11)23-19(31)24-9-10-25(20(24)32)36(3,33)34/h4-8,12-14,17H,9-10H2,1-3H3,(H,22,27)(H,23,31)(H,29,30)/t12-,13-,14+,17-/m1/s1

> <INCHI_KEY>
YPBATNHYBCGSSN-VWPFQQQWSA-N

> <FORMULA>
C21H25N5O8S2

> <MOLECULAR_WEIGHT>
539.582

> <EXACT_MASS>
539.114454181

> <JCHEM_ACCEPTOR_COUNT>
8

> <JCHEM_AVERAGE_POLARIZABILITY>
51.49914225343978

> <JCHEM_BIOAVAILABILITY>
1

> <JCHEM_DONOR_COUNT>
3

> <JCHEM_FORMAL_CHARGE>
0

> <JCHEM_GHOSE_FILTER>
0

> <JCHEM_IUPAC>
(2S,5R,6R)-6-[(2R)-2-[(3-methanesulfonyl-2-oxoimidazolidine-1-carbonyl)amino]-2-phenylacetamido]-3,3-dimethyl-7-oxo-4-thia-1-azabicyclo[3.2.0]heptane-2-carboxylic acid

> <ALOGPS_LOGP>
0.21

> <JCHEM_LOGP>
-0.8415241573333339

> <ALOGPS_LOGS>
-3.06

> <JCHEM_MDDR_LIKE_RULE>
0

> <JCHEM_NUMBER_OF_RINGS>
4

> <JCHEM_PHYSIOLOGICAL_CHARGE>
-1

> <JCHEM_PKA>
11.419862294284583

> <JCHEM_PKA_STRONGEST_ACIDIC>
3.4850654833781647

> <JCHEM_PKA_STRONGEST_BASIC>
-5.9403001768537065

> <JCHEM_POLAR_SURFACE_AREA>
173.5

> <JCHEM_REFRACTIVITY>
124.87790000000001

> <JCHEM_ROTATABLE_BOND_COUNT>
5

> <JCHEM_RULE_OF_FIVE>
0

> <ALOGPS_SOLUBILITY>
4.71e-01 g/l

> <JCHEM_TRADITIONAL_IUPAC>
mezlocillin

> <JCHEM_VEBER_RULE>
0

$$$$
441306
  -OEChem-10051719263D

 74 76  0     1  0  0  0  0  0999 V2000
   -0.7117   -0.1238    0.2893 O   0  0  0  0  0  0  0  0  0  0  0  0
    2.1047    0.2952    0.0882 O   0  0  0  0  0  0  0  0  0  0  0  0
   -2.5914    0.5968    1.4956 O   0  0  0  0  0  0  0  0  0  0  0  0
    1.2359   -2.3729    2.3982 O   0  0  0  0  0  0  0  0  0  0  0  0
   -1.7737    2.1520   -0.8572 O   0  0  0  0  0  0  0  0  0  0  0  0
   -5.9586    1.6527    0.4551 O   0  0  0  0  0  0  0  0  0  0  0  0
    4.1318    1.3652    0.6572 O   0  0  0  0  0  0  0  0  0  0  0  0
   -0.2824   -3.7887    0.2091 N   0  0  0  0  0  0  0  0  0  0  0  0
    2.7269   -3.3443   -0.0080 N   0  0  0  0  0  0  0  0  0  0  0  0
   -4.7476    0.0748   -1.4365 N   0  0  0  0  0  0  0  0  0  0  0  0
    0.6253    2.5585    1.1515 N   0  0  0  0  0  0  0  0  0  0  0  0
    6.1263    0.4966   -1.2948 N   0  0  0  0  0  0  0  0  0  0  0  0
   -0.3385   -1.3953    0.8252 C   0  0  1  0  0  0  0  0  0  0  0  0
   -0.2808   -2.4239   -0.3202 C   0  0  1  0  0  0  0  0  0  0  0  0
    0.9919   -1.2326    1.5808 C   0  0  2  0  0  0  0  0  0  0  0  0
    2.1930   -1.0185    0.6447 C   0  0  1  0  0  0  0  0  0  0  0  0
    2.2772   -2.0430   -0.5030 C   0  0  2  0  0  0  0  0  0  0  0  0
    0.9301   -2.1678   -1.2377 C   0  0  0  0  0  0  0  0  0  0  0  0
   -2.1283    0.0316    0.2688 C   0  0  1  0  0  0  0  0  0  0  0  0
   -4.0114    1.2500   -0.9442 C   0  0  2  0  0  0  0  0  0  0  0  0
   -2.5052    0.9262   -0.9209 C   0  0  1  0  0  0  0  0  0  0  0  0
   -4.5269    1.6708    0.4607 C   0  0  2  0  0  0  0  0  0  0  0  0
   -4.0141    0.7039    1.5373 C   0  0  0  0  0  0  0  0  0  0  0  0
    2.7257    1.2589    0.9385 C   0  0  1  0  0  0  0  0  0  0  0  0
   -0.7879   -4.7219   -0.7838 C   0  0  0  0  0  0  0  0  0  0  0  0
   -4.1148    3.1106    0.8084 C   0  0  0  0  0  0  0  0  0  0  0  0
    2.0394    2.6244    0.7952 C   0  0  1  0  0  0  0  0  0  0  0  0
    2.2047    3.1424   -0.6366 C   0  0  0  0  0  0  0  0  0  0  0  0
   -0.7953   -6.1434   -0.2475 C   0  0  0  0  0  0  0  0  0  0  0  0
   -4.6733   -0.0023   -2.8849 C   0  0  0  0  0  0  0  0  0  0  0  0
    4.4590    2.0874   -0.4766 C   0  0  0  0  0  0  0  0  0  0  0  0
    3.6013    2.8987   -1.1200 C   0  0  0  0  0  0  0  0  0  0  0  0
    5.8686    1.8818   -0.9319 C   0  0  0  0  0  0  0  0  0  0  0  0
   -1.0897   -1.7096    1.5649 H   0  0  0  0  0  0  0  0  0  0  0  0
   -1.1786   -2.2821   -0.9362 H   0  0  0  0  0  0  0  0  0  0  0  0
    0.8853   -0.3760    2.2560 H   0  0  0  0  0  0  0  0  0  0  0  0
    3.1286   -1.1029    1.2171 H   0  0  0  0  0  0  0  0  0  0  0  0
    3.0171   -1.6903   -1.2331 H   0  0  0  0  0  0  0  0  0  0  0  0
    0.7510   -1.2247   -1.7734 H   0  0  0  0  0  0  0  0  0  0  0  0
    1.0042   -2.9250   -2.0271 H   0  0  0  0  0  0  0  0  0  0  0  0
   -2.6166   -0.9427    0.1320 H   0  0  0  0  0  0  0  0  0  0  0  0
   -4.2089    2.0943   -1.6194 H   0  0  0  0  0  0  0  0  0  0  0  0
   -2.1625    0.4441   -1.8420 H   0  0  0  0  0  0  0  0  0  0  0  0
   -0.8756   -3.8399    1.0370 H   0  0  0  0  0  0  0  0  0  0  0  0
   -4.4661   -0.2909    1.4358 H   0  0  0  0  0  0  0  0  0  0  0  0
   -4.2960    1.0582    2.5357 H   0  0  0  0  0  0  0  0  0  0  0  0
    3.6555   -3.2542    0.4020 H   0  0  0  0  0  0  0  0  0  0  0  0
    2.8169   -3.9955   -0.7867 H   0  0  0  0  0  0  0  0  0  0  0  0
    2.6487    0.9578    1.9911 H   0  0  0  0  0  0  0  0  0  0  0  0
    2.0505   -2.2058    2.9021 H   0  0  0  0  0  0  0  0  0  0  0  0
   -1.8125   -4.4590   -1.0737 H   0  0  0  0  0  0  0  0  0  0  0  0
   -0.1736   -4.7128   -1.6897 H   0  0  0  0  0  0  0  0  0  0  0  0
   -4.4384    3.8071    0.0266 H   0  0  0  0  0  0  0  0  0  0  0  0
   -4.6075    3.4399    1.7312 H   0  0  0  0  0  0  0  0  0  0  0  0
   -3.0378    3.2250    0.9533 H   0  0  0  0  0  0  0  0  0  0  0  0
   -5.7280    0.1588   -1.1676 H   0  0  0  0  0  0  0  0  0  0  0  0
    2.5361    3.3322    1.4731 H   0  0  0  0  0  0  0  0  0  0  0  0
   -1.9974    2.6692   -1.6496 H   0  0  0  0  0  0  0  0  0  0  0  0
   -6.2660    1.8544    1.3554 H   0  0  0  0  0  0  0  0  0  0  0  0
    1.5080    2.6473   -1.3248 H   0  0  0  0  0  0  0  0  0  0  0  0
    1.9851    4.2161   -0.6700 H   0  0  0  0  0  0  0  0  0  0  0  0
    0.2144   -6.4666    0.0275 H   0  0  0  0  0  0  0  0  0  0  0  0
   -1.4358   -6.2302    0.6367 H   0  0  0  0  0  0  0  0  0  0  0  0
   -1.1755   -6.8334   -1.0077 H   0  0  0  0  0  0  0  0  0  0  0  0
   -3.6559   -0.1637   -3.2508 H   0  0  0  0  0  0  0  0  0  0  0  0
   -5.0886    0.8910   -3.3635 H   0  0  0  0  0  0  0  0  0  0  0  0
   -5.2667   -0.8574   -3.2255 H   0  0  0  0  0  0  0  0  0  0  0  0
    3.9120    3.4216   -2.0199 H   0  0  0  0  0  0  0  0  0  0  0  0
    0.5280    2.2595    2.1207 H   0  0  0  0  0  0  0  0  0  0  0  0
    0.2111    3.4876    1.0914 H   0  0  0  0  0  0  0  0  0  0  0  0
    6.5559    2.1830   -0.1329 H   0  0  0  0  0  0  0  0  0  0  0  0
    6.0956    2.5151   -1.7971 H   0  0  0  0  0  0  0  0  0  0  0  0
    7.0866    0.4079   -1.6256 H   0  0  0  0  0  0  0  0  0  0  0  0
    6.0631   -0.0920   -0.4645 H   0  0  0  0  0  0  0  0  0  0  0  0
  1 13  1  0  0  0  0
  1 19  1  0  0  0  0
  2 16  1  0  0  0  0
  2 24  1  0  0  0  0
  3 19  1  0  0  0  0
  3 23  1  0  0  0  0
  4 15  1  0  0  0  0
  4 50  1  0  0  0  0
  5 21  1  0  0  0  0
  5 58  1  0  0  0  0
  6 22  1  0  0  0  0
  6 59  1  0  0  0  0
  7 24  1  0  0  0  0
  7 31  1  0  0  0  0
  8 14  1  0  0  0  0
  8 25  1  0  0  0  0
  8 44  1  0  0  0  0
  9 17  1  0  0  0  0
  9 47  1  0  0  0  0
  9 48  1  0  0  0  0
 10 20  1  0  0  0  0
 10 30  1  0  0  0  0
 10 56  1  0  0  0  0
 11 27  1  0  0  0  0
 11 69  1  0  0  0  0
 11 70  1  0  0  0  0
 12 33  1  0  0  0  0
 12 73  1  0  0  0  0
 12 74  1  0  0  0  0
 13 14  1  0  0  0  0
 13 15  1  0  0  0  0
 13 34  1  0  0  0  0
 14 18  1  0  0  0  0
 14 35  1  0  0  0  0
 15 16  1  0  0  0  0
 15 36  1  0  0  0  0
 16 17  1  0  0  0  0
 16 37  1  0  0  0  0
 17 18  1  0  0  0  0
 17 38  1  0  0  0  0
 18 39  1  0  0  0  0
 18 40  1  0  0  0  0
 19 21  1  0  0  0  0
 19 41  1  0  0  0  0
 20 21  1  0  0  0  0
 20 22  1  0  0  0  0
 20 42  1  0  0  0  0
 21 43  1  0  0  0  0
 22 23  1  0  0  0  0
 22 26  1  0  0  0  0
 23 45  1  0  0  0  0
 23 46  1  0  0  0  0
 24 27  1  0  0  0  0
 24 49  1  0  0  0  0
 25 29  1  0  0  0  0
 25 51  1  0  0  0  0
 25 52  1  0  0  0  0
 26 53  1  0  0  0  0
 26 54  1  0  0  0  0
 26 55  1  0  0  0  0
 27 28  1  0  0  0  0
 27 57  1  0  0  0  0
 28 32  1  0  0  0  0
 28 60  1  0  0  0  0
 28 61  1  0  0  0  0
 29 62  1  0  0  0  0
 29 63  1  0  0  0  0
 29 64  1  0  0  0  0
 30 65  1  0  0  0  0
 30 66  1  0  0  0  0
 30 67  1  0  0  0  0
 31 32  2  0  0  0  0
 31 33  1  0  0  0  0
 32 68  1  0  0  0  0
 33 71  1  0  0  0  0
 33 72  1  0  0  0  0
M  END
> <DATABASE_ID>
DB00955

> <DATABASE_NAME>
drugbank

> <ORIGINAL_SOURCE>
PUBCHEM

> <ORIGINAL_SOURCE_URL>
https://pubchem.ncbi.nlm.nih.gov/rest/pug/compound/inchikey/CIDUJQMULVCIBT-MQDUPKMGSA-N/SDF?record_type=3d

> <SMILES>
CCN[C@@H]1C[C@H](N)[C@@H](O[C@H]2OC(CN)=CC[C@H]2N)[C@H](O)[C@H]1O[C@H]1OC[C@](C)(O)[C@H](NC)[C@H]1O

> <INCHI_IDENTIFIER>
InChI=1S/C21H41N5O7/c1-4-26-13-7-12(24)16(32-19-11(23)6-5-10(8-22)31-19)14(27)17(13)33-20-15(28)18(25-3)21(2,29)9-30-20/h5,11-20,25-29H,4,6-9,22-24H2,1-3H3/t11-,12+,13-,14+,15-,16-,17+,18-,19-,20-,21+/m1/s1

> <INCHI_KEY>
CIDUJQMULVCIBT-MQDUPKMGSA-N

> <FORMULA>
C21H41N5O7

> <MOLECULAR_WEIGHT>
475.587

> <EXACT_MASS>
475.30059868

> <JCHEM_ACCEPTOR_COUNT>
12

> <JCHEM_ATOM_COUNT>
74

> <JCHEM_AVERAGE_POLARIZABILITY>
50.758546209094916

> <JCHEM_BIOAVAILABILITY>
0

> <JCHEM_DONOR_COUNT>
8

> <JCHEM_FORMAL_CHARGE>
0

> <JCHEM_GHOSE_FILTER>
0

> <JCHEM_IUPAC>
(2R,3R,4R,5R)-2-{[(1S,2S,3R,4S,6R)-4-amino-3-{[(2S,3R)-3-amino-6-(aminomethyl)-3,4-dihydro-2H-pyran-2-yl]oxy}-6-(ethylamino)-2-hydroxycyclohexyl]oxy}-5-methyl-4-(methylamino)oxane-3,5-diol

> <ALOGPS_LOGP>
-1.42

> <JCHEM_LOGP>
-3.529179202333335

> <ALOGPS_LOGS>
-1.71

> <JCHEM_MDDR_LIKE_RULE>
1

> <JCHEM_NUMBER_OF_RINGS>
3

> <JCHEM_PHYSIOLOGICAL_CHARGE>
5

> <JCHEM_PKA>
13.158974448550211

> <JCHEM_PKA_STRONGEST_ACIDIC>
12.548225162153976

> <JCHEM_PKA_STRONGEST_BASIC>
9.798353036493804

> <JCHEM_POLAR_SURFACE_AREA>
199.73000000000002

> <JCHEM_REFRACTIVITY>
119.84389999999999

> <JCHEM_ROTATABLE_BOND_COUNT>
8

> <JCHEM_RULE_OF_FIVE>
0

> <ALOGPS_SOLUBILITY>
9.20e+00 g/l

> <JCHEM_TRADITIONAL_IUPAC>
1-N-ethylsisomicin

> <JCHEM_VEBER_RULE>
0

$$$$
3454
  -OEChem-10051719273D

 31 32  0     0  0  0  0  0  0999 V2000
   -2.0322    0.4769    0.1502 O   0  0  0  0  0  0  0  0  0  0  0  0
   -4.0346    1.5268    1.7481 O   0  0  0  0  0  0  0  0  0  0  0  0
   -4.7773   -1.6926   -0.8684 O   0  0  0  0  0  0  0  0  0  0  0  0
    4.4283    1.0628    0.4752 O   0  0  0  0  0  0  0  0  0  0  0  0
    0.0754    0.8327   -0.7227 N   0  0  0  0  0  0  0  0  0  0  0  0
    1.1590   -1.2650   -0.1387 N   0  0  0  0  0  0  0  0  0  0  0  0
    1.8434    2.1778   -0.4018 N   0  0  0  0  0  0  0  0  0  0  0  0
    3.4679   -1.0467    0.4842 N   0  0  0  0  0  0  0  0  0  0  0  0
    2.3784   -3.1366    0.4546 N   0  0  0  0  0  0  0  0  0  0  0  0
   -3.3872    0.1163   -0.0811 C   0  0  0  0  0  0  0  0  0  0  0  0
   -1.2691    0.4257   -1.0473 C   0  0  0  0  0  0  0  0  0  0  0  0
    1.1106    0.0563   -0.3272 C   0  0  0  0  0  0  0  0  0  0  0  0
    2.1804    0.8807   -0.1344 C   0  0  0  0  0  0  0  0  0  0  0  0
    0.5701    2.1174   -0.7540 C   0  0  0  0  0  0  0  0  0  0  0  0
   -4.1284    0.1975    1.2470 C   0  0  0  0  0  0  0  0  0  0  0  0
   -3.4266   -1.2950   -0.6560 C   0  0  0  0  0  0  0  0  0  0  0  0
    3.4546    0.3411    0.2967 C   0  0  0  0  0  0  0  0  0  0  0  0
    2.3872   -1.7764    0.2757 C   0  0  0  0  0  0  0  0  0  0  0  0
   -3.8369    0.8339   -0.7794 H   0  0  0  0  0  0  0  0  0  0  0  0
   -1.6666    1.1165   -1.7989 H   0  0  0  0  0  0  0  0  0  0  0  0
   -1.1774   -0.5778   -1.4670 H   0  0  0  0  0  0  0  0  0  0  0  0
   -5.1869   -0.0616    1.1496 H   0  0  0  0  0  0  0  0  0  0  0  0
   -3.6715   -0.4597    1.9938 H   0  0  0  0  0  0  0  0  0  0  0  0
   -2.9517   -1.3695   -1.6359 H   0  0  0  0  0  0  0  0  0  0  0  0
   -2.9403   -2.0132    0.0136 H   0  0  0  0  0  0  0  0  0  0  0  0
   -0.0428    2.9622   -1.0383 H   0  0  0  0  0  0  0  0  0  0  0  0
    0.3648   -1.8813   -0.2768 H   0  0  0  0  0  0  0  0  0  0  0  0
   -4.4591    2.1145    1.1001 H   0  0  0  0  0  0  0  0  0  0  0  0
   -4.7568   -2.6008   -1.2155 H   0  0  0  0  0  0  0  0  0  0  0  0
    1.5419   -3.6864    0.2922 H   0  0  0  0  0  0  0  0  0  0  0  0
    3.2108   -3.6314    0.7560 H   0  0  0  0  0  0  0  0  0  0  0  0
  1 10  1  0  0  0  0
  1 11  1  0  0  0  0
  2 15  1  0  0  0  0
  2 28  1  0  0  0  0
  3 16  1  0  0  0  0
  3 29  1  0  0  0  0
  4 17  2  0  0  0  0
  5 11  1  0  0  0  0
  5 12  1  0  0  0  0
  5 14  1  0  0  0  0
  6 12  1  0  0  0  0
  6 18  1  0  0  0  0
  6 27  1  0  0  0  0
  7 13  1  0  0  0  0
  7 14  2  0  0  0  0
  8 17  1  0  0  0  0
  8 18  2  0  0  0  0
  9 18  1  0  0  0  0
  9 30  1  0  0  0  0
  9 31  1  0  0  0  0
 10 15  1  0  0  0  0
 10 16  1  0  0  0  0
 10 19  1  0  0  0  0
 11 20  1  0  0  0  0
 11 21  1  0  0  0  0
 12 13  2  0  0  0  0
 13 17  1  0  0  0  0
 14 26  1  0  0  0  0
 15 22  1  0  0  0  0
 15 23  1  0  0  0  0
 16 24  1  0  0  0  0
 16 25  1  0  0  0  0
M  END
> <DATABASE_ID>
DB01004

> <DATABASE_NAME>
drugbank

> <ORIGINAL_SOURCE>
PUBCHEM

> <ORIGINAL_SOURCE_URL>
https://pubchem.ncbi.nlm.nih.gov/rest/pug/compound/inchikey/IRSCQMHQWWYFCW-UHFFFAOYSA-N/SDF?record_type=3d

> <SMILES>
NC1=NC2=C(N=CN2COC(CO)CO)C(=O)N1

> <INCHI_IDENTIFIER>
InChI=1S/C9H13N5O4/c10-9-12-7-6(8(17)13-9)11-3-14(7)4-18-5(1-15)2-16/h3,5,15-16H,1-2,4H2,(H3,10,12,13,17)

> <INCHI_KEY>
IRSCQMHQWWYFCW-UHFFFAOYSA-N

> <FORMULA>
C9H13N5O4

> <MOLECULAR_WEIGHT>
255.2306

> <EXACT_MASS>
255.096753929

> <JCHEM_ACCEPTOR_COUNT>
7

> <JCHEM_AVERAGE_POLARIZABILITY>
24.154164573887854

> <JCHEM_BIOAVAILABILITY>
1

> <JCHEM_DONOR_COUNT>
4

> <JCHEM_FORMAL_CHARGE>
0

> <JCHEM_GHOSE_FILTER>
0

> <JCHEM_IUPAC>
2-amino-9-{[(1,3-dihydroxypropan-2-yl)oxy]methyl}-6,9-dihydro-1H-purin-6-one

> <ALOGPS_LOGP>
-1.83

> <JCHEM_LOGP>
-2.179902508666667

> <ALOGPS_LOGS>
-1.35

> <JCHEM_MDDR_LIKE_RULE>
0

> <JCHEM_NUMBER_OF_RINGS>
2

> <JCHEM_PHYSIOLOGICAL_CHARGE>
0

> <JCHEM_PKA>
14.298583858244307

> <JCHEM_PKA_STRONGEST_ACIDIC>
10.159807017663518

> <JCHEM_PKA_STRONGEST_BASIC>
1.7601277428844484

> <JCHEM_POLAR_SURFACE_AREA>
134.99

> <JCHEM_REFRACTIVITY>
61.029300000000006

> <JCHEM_ROTATABLE_BOND_COUNT>
5

> <JCHEM_RULE_OF_FIVE>
1

> <ALOGPS_SOLUBILITY>
1.15e+01 g/l

> <JCHEM_TRADITIONAL_IUPAC>
gancyclovir

> <JCHEM_VEBER_RULE>
0

$$$$
5379
  -OEChem-10051719283D

 49 52  0     1  0  0  0  0  0999 V2000
    1.8058   -3.0140    0.0840 F   0  0  0  0  0  0  0  0  0  0  0  0
    1.0471    1.6316   -0.3233 O   0  0  0  0  0  0  0  0  0  0  0  0
   -3.2082   -2.5927    0.2126 O   0  0  0  0  0  0  0  0  0  0  0  0
   -5.4991   -1.4815    0.8278 O   0  0  0  0  0  0  0  0  0  0  0  0
   -5.9449    0.3473   -0.4711 O   0  0  0  0  0  0  0  0  0  0  0  0
   -1.8264    1.2219   -0.1874 N   0  0  0  0  0  0  0  0  0  0  0  0
    2.7898   -0.4561   -0.1882 N   0  0  1  0  0  0  0  0  0  0  0  0
    5.6306   -0.2029   -0.2056 N   0  0  0  0  0  0  0  0  0  0  0  0
   -1.4579    2.6496   -0.3329 C   0  0  0  0  0  0  0  0  0  0  0  0
   -1.9590    3.6680    0.6344 C   0  0  0  0  0  0  0  0  0  0  0  0
   -0.5063    3.2922    0.6189 C   0  0  0  0  0  0  0  0  0  0  0  0
   -0.8765    0.1630   -0.1210 C   0  0  0  0  0  0  0  0  0  0  0  0
   -3.1754    0.9336   -0.1147 C   0  0  0  0  0  0  0  0  0  0  0  0
    0.5088    0.3833   -0.1888 C   0  0  0  0  0  0  0  0  0  0  0  0
   -1.3270   -1.1678    0.0183 C   0  0  0  0  0  0  0  0  0  0  0  0
    1.4105   -0.6825   -0.1199 C   0  0  0  0  0  0  0  0  0  0  0  0
    3.5136   -0.2155    1.0685 C   0  0  0  0  0  0  0  0  0  0  0  0
    4.8349    0.5181    0.7943 C   0  0  1  0  0  0  0  0  0  0  0  0
    3.5738   -1.0669   -1.2663 C   0  0  0  0  0  0  0  0  0  0  0  0
    4.8899   -0.3159   -1.4605 C   0  0  0  0  0  0  0  0  0  0  0  0
   -3.7069   -0.2880    0.0172 C   0  0  0  0  0  0  0  0  0  0  0  0
   -2.7848   -1.4496    0.0937 C   0  0  0  0  0  0  0  0  0  0  0  0
   -0.4226   -2.2347    0.0871 C   0  0  0  0  0  0  0  0  0  0  0  0
    0.9458   -1.9874    0.0177 C   0  0  0  0  0  0  0  0  0  0  0  0
    5.6509    0.6544    2.0785 C   0  0  0  0  0  0  0  0  0  0  0  0
   -5.1642   -0.4104    0.0775 C   0  0  0  0  0  0  0  0  0  0  0  0
    1.2578    2.1029   -1.6510 C   0  0  0  0  0  0  0  0  0  0  0  0
   -1.4330    2.9588   -1.3728 H   0  0  0  0  0  0  0  0  0  0  0  0
   -2.5442    3.3490    1.4882 H   0  0  0  0  0  0  0  0  0  0  0  0
   -2.2323    4.6420    0.2469 H   0  0  0  0  0  0  0  0  0  0  0  0
    0.1731    4.0567    0.2603 H   0  0  0  0  0  0  0  0  0  0  0  0
   -0.1644    2.7722    1.5071 H   0  0  0  0  0  0  0  0  0  0  0  0
   -3.8097    1.8124   -0.1833 H   0  0  0  0  0  0  0  0  0  0  0  0
    3.6960   -1.1757    1.5690 H   0  0  0  0  0  0  0  0  0  0  0  0
    2.9036    0.3950    1.7469 H   0  0  0  0  0  0  0  0  0  0  0  0
    4.6209    1.5274    0.4189 H   0  0  0  0  0  0  0  0  0  0  0  0
    3.0113   -1.0405   -2.2077 H   0  0  0  0  0  0  0  0  0  0  0  0
    3.7796   -2.1185   -1.0314 H   0  0  0  0  0  0  0  0  0  0  0  0
    5.5073   -0.8432   -2.1959 H   0  0  0  0  0  0  0  0  0  0  0  0
    4.7012    0.6847   -1.8686 H   0  0  0  0  0  0  0  0  0  0  0  0
    5.8446   -1.1376    0.1430 H   0  0  0  0  0  0  0  0  0  0  0  0
   -0.7650   -3.2602    0.1943 H   0  0  0  0  0  0  0  0  0  0  0  0
    5.0890    1.2139    2.8341 H   0  0  0  0  0  0  0  0  0  0  0  0
    5.9031   -0.3239    2.5033 H   0  0  0  0  0  0  0  0  0  0  0  0
    6.5862    1.1938    1.8927 H   0  0  0  0  0  0  0  0  0  0  0  0
    0.4355    1.8306   -2.3206 H   0  0  0  0  0  0  0  0  0  0  0  0
    2.1902    1.6873   -2.0450 H   0  0  0  0  0  0  0  0  0  0  0  0
    1.3580    3.1914   -1.6323 H   0  0  0  0  0  0  0  0  0  0  0  0
   -6.4711   -1.5972    0.8921 H   0  0  0  0  0  0  0  0  0  0  0  0
  1 24  1  0  0  0  0
  2 14  1  0  0  0  0
  2 27  1  0  0  0  0
  3 22  2  0  0  0  0
  4 26  1  0  0  0  0
  4 49  1  0  0  0  0
  5 26  2  0  0  0  0
  6  9  1  0  0  0  0
  6 12  1  0  0  0  0
  6 13  1  0  0  0  0
  7 16  1  0  0  0  0
  7 17  1  0  0  0  0
  7 19  1  0  0  0  0
  8 18  1  0  0  0  0
  8 20  1  0  0  0  0
  8 41  1  0  0  0  0
  9 10  1  0  0  0  0
  9 11  1  0  0  0  0
  9 28  1  0  0  0  0
 10 11  1  0  0  0  0
 10 29  1  0  0  0  0
 10 30  1  0  0  0  0
 11 31  1  0  0  0  0
 11 32  1  0  0  0  0
 12 14  2  0  0  0  0
 12 15  1  0  0  0  0
 13 21  2  0  0  0  0
 13 33  1  0  0  0  0
 14 16  1  0  0  0  0
 15 22  1  0  0  0  0
 15 23  2  0  0  0  0
 16 24  2  0  0  0  0
 17 18  1  0  0  0  0
 17 34  1  0  0  0  0
 17 35  1  0  0  0  0
 18 25  1  0  0  0  0
 18 36  1  0  0  0  0
 19 20  1  0  0  0  0
 19 37  1  0  0  0  0
 19 38  1  0  0  0  0
 20 39  1  0  0  0  0
 20 40  1  0  0  0  0
 21 22  1  0  0  0  0
 21 26  1  0  0  0  0
 23 24  1  0  0  0  0
 23 42  1  0  0  0  0
 25 43  1  0  0  0  0
 25 44  1  0  0  0  0
 25 45  1  0  0  0  0
 27 46  1  0  0  0  0
 27 47  1  0  0  0  0
 27 48  1  0  0  0  0
M  END
> <DATABASE_ID>
DB01044

> <DATABASE_NAME>
drugbank

> <ORIGINAL_SOURCE>
PUBCHEM

> <ORIGINAL_SOURCE_URL>
https://pubchem.ncbi.nlm.nih.gov/rest/pug/compound/inchikey/XUBOMFCQGDBHNK-UHFFFAOYSA-N/SDF?record_type=3d

> <SMILES>
COC1=C2N(C=C(C(O)=O)C(=O)C2=CC(F)=C1N1CCNC(C)C1)C1CC1

> <INCHI_IDENTIFIER>
InChI=1S/C19H22FN3O4/c1-10-8-22(6-5-21-10)16-14(20)7-12-15(18(16)27-2)23(11-3-4-11)9-13(17(12)24)19(25)26/h7,9-11,21H,3-6,8H2,1-2H3,(H,25,26)

> <INCHI_KEY>
XUBOMFCQGDBHNK-UHFFFAOYSA-N

> <FORMULA>
C19H22FN3O4

> <MOLECULAR_WEIGHT>
375.3941

> <EXACT_MASS>
375.159434412

> <JCHEM_ACCEPTOR_COUNT>
7

> <JCHEM_AVERAGE_POLARIZABILITY>
38.29354073254589

> <JCHEM_BIOAVAILABILITY>
1

> <JCHEM_DONOR_COUNT>
2

> <JCHEM_FORMAL_CHARGE>
0

> <JCHEM_GHOSE_FILTER>
0

> <JCHEM_IUPAC>
1-cyclopropyl-6-fluoro-8-methoxy-7-(3-methylpiperazin-1-yl)-4-oxo-1,4-dihydroquinoline-3-carboxylic acid

> <ALOGPS_LOGP>
-0.23

> <JCHEM_LOGP>
-0.5803196184255874

> <ALOGPS_LOGS>
-2.77

> <JCHEM_MDDR_LIKE_RULE>
0

> <JCHEM_NUMBER_OF_RINGS>
4

> <JCHEM_PHYSIOLOGICAL_CHARGE>
0

> <JCHEM_PKA_STRONGEST_ACIDIC>
5.68533412718849

> <JCHEM_PKA_STRONGEST_BASIC>
8.728713815033682

> <JCHEM_POLAR_SURFACE_AREA>
82.11

> <JCHEM_REFRACTIVITY>
98.82140000000001

> <JCHEM_ROTATABLE_BOND_COUNT>
4

> <JCHEM_RULE_OF_FIVE>
1

> <ALOGPS_SOLUBILITY>
6.31e-01 g/l

> <JCHEM_TRADITIONAL_IUPAC>
gatifloxacin

> <JCHEM_VEBER_RULE>
0

$$$$
5904
  -OEChem-10051719283D

 41 43  0     1  0  0  0  0  0999 V2000
   -0.8019    1.2308    0.5170 S   0  0  0  0  0  0  0  0  0  0  0  0
   -2.2842   -2.5451   -1.2026 O   0  0  0  0  0  0  0  0  0  0  0  0
   -5.3517    1.0760   -0.8170 O   0  0  0  0  0  0  0  0  0  0  0  0
   -5.1157   -0.6970    0.5961 O   0  0  0  0  0  0  0  0  0  0  0  0
    2.1598   -2.0405    1.2167 O   0  0  0  0  0  0  0  0  0  0  0  0
   -2.4781   -0.7369    0.3018 N   0  0  0  0  0  0  0  0  0  0  0  0
    0.5677   -1.3807   -0.3375 N   0  0  0  0  0  0  0  0  0  0  0  0
   -1.3100   -0.4177    1.1279 C   0  0  1  0  0  0  0  0  0  0  0  0
   -2.5670    1.6679    0.1134 C   0  0  0  0  0  0  0  0  0  0  0  0
   -3.1671    0.3360   -0.3862 C   0  0  2  0  0  0  0  0  0  0  0  0
   -0.6142   -1.6325    0.4990 C   0  0  1  0  0  0  0  0  0  0  0  0
   -1.9181   -1.8261   -0.3007 C   0  0  0  0  0  0  0  0  0  0  0  0
   -3.2193    2.2224    1.3871 C   0  0  0  0  0  0  0  0  0  0  0  0
   -2.5771    2.7313   -0.9863 C   0  0  0  0  0  0  0  0  0  0  0  0
   -4.6296    0.1576   -0.1297 C   0  0  0  0  0  0  0  0  0  0  0  0
    1.8730   -1.6107    0.1024 C   0  0  0  0  0  0  0  0  0  0  0  0
    2.9020   -1.2655   -0.9563 C   0  0  0  0  0  0  0  0  0  0  0  0
    3.8679   -0.1949   -0.5225 C   0  0  0  0  0  0  0  0  0  0  0  0
    3.5670    1.1373   -0.7687 C   0  0  0  0  0  0  0  0  0  0  0  0
    5.0457   -0.5556    0.1171 C   0  0  0  0  0  0  0  0  0  0  0  0
    4.4619    2.1290   -0.3670 C   0  0  0  0  0  0  0  0  0  0  0  0
    5.9405    0.4362    0.5190 C   0  0  0  0  0  0  0  0  0  0  0  0
    5.6486    1.7786    0.2769 C   0  0  0  0  0  0  0  0  0  0  0  0
   -1.5167   -0.4852    2.1999 H   0  0  0  0  0  0  0  0  0  0  0  0
   -2.9961    0.1926   -1.4616 H   0  0  0  0  0  0  0  0  0  0  0  0
   -0.4509   -2.4585    1.2025 H   0  0  0  0  0  0  0  0  0  0  0  0
   -3.2655    1.4761    2.1882 H   0  0  0  0  0  0  0  0  0  0  0  0
   -2.6724    3.0921    1.7709 H   0  0  0  0  0  0  0  0  0  0  0  0
   -4.2446    2.5572    1.1944 H   0  0  0  0  0  0  0  0  0  0  0  0
   -2.0666    3.6467   -0.6644 H   0  0  0  0  0  0  0  0  0  0  0  0
   -2.0842    2.3779   -1.8995 H   0  0  0  0  0  0  0  0  0  0  0  0
   -3.6008    3.0119   -1.2561 H   0  0  0  0  0  0  0  0  0  0  0  0
    0.4359   -1.0113   -1.2762 H   0  0  0  0  0  0  0  0  0  0  0  0
   -6.3150    0.9762   -0.6611 H   0  0  0  0  0  0  0  0  0  0  0  0
    3.4453   -2.1891   -1.1950 H   0  0  0  0  0  0  0  0  0  0  0  0
    2.4229   -0.9646   -1.8960 H   0  0  0  0  0  0  0  0  0  0  0  0
    2.6443    1.4206   -1.2675 H   0  0  0  0  0  0  0  0  0  0  0  0
    5.2818   -1.5979    0.3120 H   0  0  0  0  0  0  0  0  0  0  0  0
    4.2343    3.1743   -0.5548 H   0  0  0  0  0  0  0  0  0  0  0  0
    6.8642    0.1634    1.0209 H   0  0  0  0  0  0  0  0  0  0  0  0
    6.3451    2.5508    0.5901 H   0  0  0  0  0  0  0  0  0  0  0  0
  1  8  1  0  0  0  0
  1  9  1  0  0  0  0
  2 12  2  0  0  0  0
  3 15  1  0  0  0  0
  3 34  1  0  0  0  0
  4 15  2  0  0  0  0
  5 16  2  0  0  0  0
  6  8  1  0  0  0  0
  6 10  1  0  0  0  0
  6 12  1  0  0  0  0
  7 11  1  0  0  0  0
  7 16  1  0  0  0  0
  7 33  1  0  0  0  0
  8 11  1  0  0  0  0
  8 24  1  0  0  0  0
  9 10  1  0  0  0  0
  9 13  1  0  0  0  0
  9 14  1  0  0  0  0
 10 15  1  0  0  0  0
 10 25  1  0  0  0  0
 11 12  1  0  0  0  0
 11 26  1  0  0  0  0
 13 27  1  0  0  0  0
 13 28  1  0  0  0  0
 13 29  1  0  0  0  0
 14 30  1  0  0  0  0
 14 31  1  0  0  0  0
 14 32  1  0  0  0  0
 16 17  1  0  0  0  0
 17 18  1  0  0  0  0
 17 35  1  0  0  0  0
 17 36  1  0  0  0  0
 18 19  2  0  0  0  0
 18 20  1  0  0  0  0
 19 21  1  0  0  0  0
 19 37  1  0  0  0  0
 20 22  2  0  0  0  0
 20 38  1  0  0  0  0
 21 23  2  0  0  0  0
 21 39  1  0  0  0  0
 22 23  1  0  0  0  0
 22 40  1  0  0  0  0
 23 41  1  0  0  0  0
M  END
> <DATABASE_ID>
DB01053

> <DATABASE_NAME>
drugbank

> <ORIGINAL_SOURCE>
PUBCHEM

> <ORIGINAL_SOURCE_URL>
https://pubchem.ncbi.nlm.nih.gov/rest/pug/compound/inchikey/JGSARLDLIJGVTE-MBNYWOFBSA-N/SDF?record_type=3d

> <SMILES>
[H][C@]12SC(C)(C)[C@@H](N1C(=O)[C@H]2NC(=O)CC1=CC=CC=C1)C(O)=O

> <INCHI_IDENTIFIER>
InChI=1S/C16H18N2O4S/c1-16(2)12(15(21)22)18-13(20)11(14(18)23-16)17-10(19)8-9-6-4-3-5-7-9/h3-7,11-12,14H,8H2,1-2H3,(H,17,19)(H,21,22)/t11-,12+,14-/m1/s1

> <INCHI_KEY>
JGSARLDLIJGVTE-MBNYWOFBSA-N

> <FORMULA>
C16H18N2O4S

> <MOLECULAR_WEIGHT>
334.39

> <EXACT_MASS>
334.098727764

> <JCHEM_ACCEPTOR_COUNT>
4

> <JCHEM_AVERAGE_POLARIZABILITY>
33.541594084546915

> <JCHEM_BIOAVAILABILITY>
1

> <JCHEM_DONOR_COUNT>
2

> <JCHEM_FORMAL_CHARGE>
0

> <JCHEM_GHOSE_FILTER>
1

> <JCHEM_IUPAC>
(2S,5R,6R)-3,3-dimethyl-7-oxo-6-(2-phenylacetamido)-4-thia-1-azabicyclo[3.2.0]heptane-2-carboxylic acid

> <ALOGPS_LOGP>
1.92

> <JCHEM_LOGP>
1.0806779529999997

> <ALOGPS_LOGS>
-3.07

> <JCHEM_MDDR_LIKE_RULE>
0

> <JCHEM_NUMBER_OF_RINGS>
3

> <JCHEM_PHYSIOLOGICAL_CHARGE>
-1

> <JCHEM_PKA>
12.119397282151533

> <JCHEM_PKA_STRONGEST_ACIDIC>
3.5292810836901047

> <JCHEM_PKA_STRONGEST_BASIC>
-2.634074595453018

> <JCHEM_POLAR_SURFACE_AREA>
86.71

> <JCHEM_REFRACTIVITY>
84.52780000000003

> <JCHEM_ROTATABLE_BOND_COUNT>
4

> <JCHEM_RULE_OF_FIVE>
1

> <ALOGPS_SOLUBILITY>
2.85e-01 g/l

> <JCHEM_TRADITIONAL_IUPAC>
penicillin G

> <JCHEM_VEBER_RULE>
0

$$$$
33613
  -OEChem-10051719283D

 44 46  0     1  0  0  0  0  0999 V2000
    0.8127   -0.5305    1.0470 S   0  0  0  0  0  0  0  0  0  0  0  0
    2.5412    1.9384   -2.1377 O   0  0  0  0  0  0  0  0  0  0  0  0
    5.1164   -1.8059   -0.0667 O   0  0  0  0  0  0  0  0  0  0  0  0
    4.3753   -0.4801    1.6331 O   0  0  0  0  0  0  0  0  0  0  0  0
   -1.1798    2.4440    1.6021 O   0  0  0  0  0  0  0  0  0  0  0  0
   -4.1594   -3.4891    0.0834 O   0  0  0  0  0  0  0  0  0  0  0  0
    2.7863    0.7498   -0.1147 N   0  0  0  0  0  0  0  0  0  0  0  0
   -0.1496    1.9689   -0.4201 N   0  0  0  0  0  0  0  0  0  0  0  0
   -3.5725    2.8271    0.2755 N   0  0  0  0  0  0  0  0  0  0  0  0
    1.8063    1.0059    0.9417 C   0  0  1  0  0  0  0  0  0  0  0  0
    1.8293   -1.4420   -0.2179 C   0  0  0  0  0  0  0  0  0  0  0  0
    3.1210   -0.6204   -0.4284 C   0  0  2  0  0  0  0  0  0  0  0  0
    1.2349    2.1188    0.0479 C   0  0  1  0  0  0  0  0  0  0  0  0
    2.2954    1.6814   -0.9812 C   0  0  0  0  0  0  0  0  0  0  0  0
    2.0775   -2.8717    0.2742 C   0  0  0  0  0  0  0  0  0  0  0  0
    1.0045   -1.4983   -1.5148 C   0  0  0  0  0  0  0  0  0  0  0  0
    4.2478   -0.9379    0.5072 C   0  0  0  0  0  0  0  0  0  0  0  0
   -1.2582    2.1473    0.4110 C   0  0  0  0  0  0  0  0  0  0  0  0
   -2.5838    1.9144   -0.3056 C   0  0  1  0  0  0  0  0  0  0  0  0
   -3.0064    0.4636   -0.2012 C   0  0  0  0  0  0  0  0  0  0  0  0
   -3.1874   -0.2708   -1.3592 C   0  0  0  0  0  0  0  0  0  0  0  0
   -3.2022   -0.0926    1.0502 C   0  0  0  0  0  0  0  0  0  0  0  0
   -3.5775   -1.6066   -1.2626 C   0  0  0  0  0  0  0  0  0  0  0  0
   -3.5921   -1.4285    1.1467 C   0  0  0  0  0  0  0  0  0  0  0  0
   -3.7798   -2.1854   -0.0097 C   0  0  0  0  0  0  0  0  0  0  0  0
    2.2561    1.3404    1.8807 H   0  0  0  0  0  0  0  0  0  0  0  0
    3.4766   -0.6650   -1.4646 H   0  0  0  0  0  0  0  0  0  0  0  0
    1.4211    3.1321    0.4236 H   0  0  0  0  0  0  0  0  0  0  0  0
    1.1390   -3.4302    0.3738 H   0  0  0  0  0  0  0  0  0  0  0  0
    2.7069   -3.4212   -0.4352 H   0  0  0  0  0  0  0  0  0  0  0  0
    2.5758   -2.8963    1.2496 H   0  0  0  0  0  0  0  0  0  0  0  0
    1.5603   -2.0263   -2.2987 H   0  0  0  0  0  0  0  0  0  0  0  0
    0.0600   -2.0365   -1.3702 H   0  0  0  0  0  0  0  0  0  0  0  0
    0.7635   -0.5048   -1.9058 H   0  0  0  0  0  0  0  0  0  0  0  0
   -0.3223    1.7159   -1.3903 H   0  0  0  0  0  0  0  0  0  0  0  0
   -2.4633    2.1960   -1.3593 H   0  0  0  0  0  0  0  0  0  0  0  0
    5.8621   -2.0269    0.5312 H   0  0  0  0  0  0  0  0  0  0  0  0
   -4.4541    2.7374   -0.2289 H   0  0  0  0  0  0  0  0  0  0  0  0
   -3.2689    3.7907    0.1369 H   0  0  0  0  0  0  0  0  0  0  0  0
   -3.0315    0.1684   -2.3400 H   0  0  0  0  0  0  0  0  0  0  0  0
   -3.0658    0.4817    1.9615 H   0  0  0  0  0  0  0  0  0  0  0  0
   -3.7211   -2.1915   -2.1670 H   0  0  0  0  0  0  0  0  0  0  0  0
   -3.7470   -1.8675    2.1286 H   0  0  0  0  0  0  0  0  0  0  0  0
   -4.2526   -3.7236    1.0227 H   0  0  0  0  0  0  0  0  0  0  0  0
  1 10  1  0  0  0  0
  1 11  1  0  0  0  0
  2 14  2  0  0  0  0
  3 17  1  0  0  0  0
  3 37  1  0  0  0  0
  4 17  2  0  0  0  0
  5 18  2  0  0  0  0
  6 25  1  0  0  0  0
  6 44  1  0  0  0  0
  7 10  1  0  0  0  0
  7 12  1  0  0  0  0
  7 14  1  0  0  0  0
  8 13  1  0  0  0  0
  8 18  1  0  0  0  0
  8 35  1  0  0  0  0
  9 19  1  0  0  0  0
  9 38  1  0  0  0  0
  9 39  1  0  0  0  0
 10 13  1  0  0  0  0
 10 26  1  0  0  0  0
 11 12  1  0  0  0  0
 11 15  1  0  0  0  0
 11 16  1  0  0  0  0
 12 17  1  0  0  0  0
 12 27  1  0  0  0  0
 13 14  1  0  0  0  0
 13 28  1  0  0  0  0
 15 29  1  0  0  0  0
 15 30  1  0  0  0  0
 15 31  1  0  0  0  0
 16 32  1  0  0  0  0
 16 33  1  0  0  0  0
 16 34  1  0  0  0  0
 18 19  1  0  0  0  0
 19 20  1  0  0  0  0
 19 36  1  0  0  0  0
 20 21  2  0  0  0  0
 20 22  1  0  0  0  0
 21 23  1  0  0  0  0
 21 40  1  0  0  0  0
 22 24  2  0  0  0  0
 22 41  1  0  0  0  0
 23 25  2  0  0  0  0
 23 42  1  0  0  0  0
 24 25  1  0  0  0  0
 24 43  1  0  0  0  0
M  END
> <DATABASE_ID>
DB01060

> <DATABASE_NAME>
drugbank

> <ORIGINAL_SOURCE>
PUBCHEM

> <ORIGINAL_SOURCE_URL>
https://pubchem.ncbi.nlm.nih.gov/rest/pug/compound/inchikey/LSQZJLSUYDQPKJ-NJBDSQKTSA-N/SDF?record_type=3d

> <SMILES>
[H][C@]12SC(C)(C)[C@@H](N1C(=O)[C@H]2NC(=O)[C@H](N)C1=CC=C(O)C=C1)C(O)=O

> <INCHI_IDENTIFIER>
InChI=1S/C16H19N3O5S/c1-16(2)11(15(23)24)19-13(22)10(14(19)25-16)18-12(21)9(17)7-3-5-8(20)6-4-7/h3-6,9-11,14,20H,17H2,1-2H3,(H,18,21)(H,23,24)/t9-,10-,11+,14-/m1/s1

> <INCHI_KEY>
LSQZJLSUYDQPKJ-NJBDSQKTSA-N

> <FORMULA>
C16H19N3O5S

> <MOLECULAR_WEIGHT>
365.404

> <EXACT_MASS>
365.104541423

> <JCHEM_ACCEPTOR_COUNT>
6

> <JCHEM_AVERAGE_POLARIZABILITY>
35.52711971930114

> <JCHEM_BIOAVAILABILITY>
1

> <JCHEM_DONOR_COUNT>
4

> <JCHEM_FORMAL_CHARGE>
0

> <JCHEM_GHOSE_FILTER>
0

> <JCHEM_IUPAC>
(2S,5R,6R)-6-[(2R)-2-amino-2-(4-hydroxyphenyl)acetamido]-3,3-dimethyl-7-oxo-4-thia-1-azabicyclo[3.2.0]heptane-2-carboxylic acid

> <ALOGPS_LOGP>
0.75

> <JCHEM_LOGP>
-2.310176132597505

> <ALOGPS_LOGS>
-2.58

> <JCHEM_MDDR_LIKE_RULE>
0

> <JCHEM_NUMBER_OF_RINGS>
3

> <JCHEM_PHYSIOLOGICAL_CHARGE>
0

> <JCHEM_PKA>
9.479773257626581

> <JCHEM_PKA_STRONGEST_ACIDIC>
3.23146046520975

> <JCHEM_PKA_STRONGEST_BASIC>
7.429732430412562

> <JCHEM_POLAR_SURFACE_AREA>
132.96

> <JCHEM_REFRACTIVITY>
89.50440000000002

> <JCHEM_ROTATABLE_BOND_COUNT>
4

> <JCHEM_RULE_OF_FIVE>
1

> <ALOGPS_SOLUBILITY>
9.58e-01 g/l

> <JCHEM_TRADITIONAL_IUPAC>
amoxicillin

> <JCHEM_VEBER_RULE>
0

$$$$
5479529
  -OEChem-10051719303D

 45 47  0     1  0  0  0  0  0999 V2000
   -0.7028    1.1939   -1.6963 S   0  0  0  0  0  0  0  0  0  0  0  0
    0.2661    0.0799    2.7120 O   0  0  0  0  0  0  0  0  0  0  0  0
   -5.2666    0.3533   -0.9703 O   0  0  0  0  0  0  0  0  0  0  0  0
   -2.8890   -0.2047    2.9069 O   0  0  0  0  0  0  0  0  0  0  0  0
   -2.7613   -2.1368    1.6900 O   0  0  0  0  0  0  0  0  0  0  0  0
    3.2661    0.8190    1.8701 O   0  0  0  0  0  0  0  0  0  0  0  0
    4.9375   -1.8039   -1.3185 O   0  0  0  0  0  0  0  0  0  0  0  0
    4.7147    2.2778   -0.4803 O   0  0  0  0  0  0  0  0  0  0  0  0
   -6.8707   -1.2836   -1.1880 O   0  0  0  0  0  0  0  0  0  0  0  0
   -1.0940    0.6581    0.8745 N   0  0  0  0  0  0  0  0  0  0  0  0
    1.8251    1.1082    0.0400 N   0  0  0  0  0  0  0  0  0  0  0  0
    4.8913    0.9338   -0.8375 N   0  0  0  0  0  0  0  0  0  0  0  0
   -7.3956    0.9360   -1.4789 N   0  0  0  0  0  0  0  0  0  0  0  0
   -0.6787    1.7563    0.0211 C   0  0  1  0  0  0  0  0  0  0  0  0
    0.6814    1.6810    0.7490 C   0  0  1  0  0  0  0  0  0  0  0  0
   -0.0264    0.6758    1.7018 C   0  0  0  0  0  0  0  0  0  0  0  0
   -2.2487   -0.0357    0.7036 C   0  0  0  0  0  0  0  0  0  0  0  0
   -2.9607    0.0482   -0.4455 C   0  0  0  0  0  0  0  0  0  0  0  0
   -2.4913    0.8318   -1.6693 C   0  0  0  0  0  0  0  0  0  0  0  0
   -4.2912   -0.6257   -0.6806 C   0  0  0  0  0  0  0  0  0  0  0  0
   -2.6566   -0.9314    1.7961 C   0  0  0  0  0  0  0  0  0  0  0  0
    2.9950    0.7396    0.6825 C   0  0  0  0  0  0  0  0  0  0  0  0
    4.0249    0.1648   -0.2514 C   0  0  0  0  0  0  0  0  0  0  0  0
    4.0086   -1.2809   -0.4759 C   0  0  0  0  0  0  0  0  0  0  0  0
   -6.5393   -0.1031   -1.2101 C   0  0  0  0  0  0  0  0  0  0  0  0
    3.1961   -2.2725    0.0228 C   0  0  0  0  0  0  0  0  0  0  0  0
    3.6554   -3.4824   -0.5502 C   0  0  0  0  0  0  0  0  0  0  0  0
    4.7157   -3.1440   -1.3581 C   0  0  0  0  0  0  0  0  0  0  0  0
    5.6950    3.0471   -1.1594 C   0  0  0  0  0  0  0  0  0  0  0  0
   -1.2353    2.6810    0.2145 H   0  0  0  0  0  0  0  0  0  0  0  0
    0.9533    2.6193    1.2471 H   0  0  0  0  0  0  0  0  0  0  0  0
   -2.7000    0.2597   -2.5796 H   0  0  0  0  0  0  0  0  0  0  0  0
   -3.0414    1.7769   -1.7338 H   0  0  0  0  0  0  0  0  0  0  0  0
    1.7740    0.9693   -0.9665 H   0  0  0  0  0  0  0  0  0  0  0  0
   -4.1987   -1.3212   -1.5240 H   0  0  0  0  0  0  0  0  0  0  0  0
   -4.6227   -1.1996    0.1901 H   0  0  0  0  0  0  0  0  0  0  0  0
   -3.1647   -0.7649    3.6635 H   0  0  0  0  0  0  0  0  0  0  0  0
    2.3732   -2.1486    0.7125 H   0  0  0  0  0  0  0  0  0  0  0  0
    3.2624   -4.4766   -0.3939 H   0  0  0  0  0  0  0  0  0  0  0  0
    5.3818   -3.7091   -1.9936 H   0  0  0  0  0  0  0  0  0  0  0  0
   -8.3768    0.7739   -1.6790 H   0  0  0  0  0  0  0  0  0  0  0  0
   -7.0732    1.8979   -1.4857 H   0  0  0  0  0  0  0  0  0  0  0  0
    5.5627    4.0970   -0.8850 H   0  0  0  0  0  0  0  0  0  0  0  0
    5.5726    2.9490   -2.2426 H   0  0  0  0  0  0  0  0  0  0  0  0
    6.6999    2.7304   -0.8632 H   0  0  0  0  0  0  0  0  0  0  0  0
  1 14  1  0  0  0  0
  1 19  1  0  0  0  0
  2 16  2  0  0  0  0
  3 20  1  0  0  0  0
  3 25  1  0  0  0  0
  4 21  1  0  0  0  0
  4 37  1  0  0  0  0
  5 21  2  0  0  0  0
  6 22  2  0  0  0  0
  7 24  1  0  0  0  0
  7 28  1  0  0  0  0
  8 12  1  0  0  0  0
  8 29  1  0  0  0  0
  9 25  2  0  0  0  0
 10 14  1  0  0  0  0
 10 16  1  0  0  0  0
 10 17  1  0  0  0  0
 11 15  1  0  0  0  0
 11 22  1  0  0  0  0
 11 34  1  0  0  0  0
 12 23  2  0  0  0  0
 13 25  1  0  0  0  0
 13 41  1  0  0  0  0
 13 42  1  0  0  0  0
 14 15  1  0  0  0  0
 14 30  1  0  0  0  0
 15 16  1  0  0  0  0
 15 31  1  0  0  0  0
 17 18  2  0  0  0  0
 17 21  1  0  0  0  0
 18 19  1  0  0  0  0
 18 20  1  0  0  0  0
 19 32  1  0  0  0  0
 19 33  1  0  0  0  0
 20 35  1  0  0  0  0
 20 36  1  0  0  0  0
 22 23  1  0  0  0  0
 23 24  1  0  0  0  0
 24 26  2  0  0  0  0
 26 27  1  0  0  0  0
 26 38  1  0  0  0  0
 27 28  2  0  0  0  0
 27 39  1  0  0  0  0
 28 40  1  0  0  0  0
 29 43  1  0  0  0  0
 29 44  1  0  0  0  0
 29 45  1  0  0  0  0
M  END
> <DATABASE_ID>
DB01112

> <DATABASE_NAME>
drugbank

> <ORIGINAL_SOURCE>
PUBCHEM

> <ORIGINAL_SOURCE_URL>
https://pubchem.ncbi.nlm.nih.gov/rest/pug/compound/inchikey/JFPVXVDWJQMJEE-IZRZKJBUSA-N/SDF?record_type=3d

> <SMILES>
[H][C@]12SCC(COC(N)=O)=C(N1C(=O)[C@H]2NC(=O)C(=N/OC)\C1=CC=CO1)C(O)=O

> <INCHI_IDENTIFIER>
InChI=1S/C16H16N4O8S/c1-26-19-9(8-3-2-4-27-8)12(21)18-10-13(22)20-11(15(23)24)7(5-28-16(17)25)6-29-14(10)20/h2-4,10,14H,5-6H2,1H3,(H2,17,25)(H,18,21)(H,23,24)/b19-9-/t10-,14-/m1/s1

> <INCHI_KEY>
JFPVXVDWJQMJEE-IZRZKJBUSA-N

> <FORMULA>
C16H16N4O8S

> <MOLECULAR_WEIGHT>
424.385

> <EXACT_MASS>
424.068884198

> <JCHEM_ACCEPTOR_COUNT>
7

> <JCHEM_AVERAGE_POLARIZABILITY>
38.749728909236225

> <JCHEM_BIOAVAILABILITY>
1

> <JCHEM_DONOR_COUNT>
3

> <JCHEM_FORMAL_CHARGE>
0

> <JCHEM_GHOSE_FILTER>
0

> <JCHEM_IUPAC>
(6R,7R)-3-[(carbamoyloxy)methyl]-7-[(2Z)-2-(furan-2-yl)-2-(methoxyimino)acetamido]-8-oxo-5-thia-1-azabicyclo[4.2.0]oct-2-ene-2-carboxylic acid

> <ALOGPS_LOGP>
-0.24

> <JCHEM_LOGP>
-0.9029734729999994

> <ALOGPS_LOGS>
-3.17

> <JCHEM_MDDR_LIKE_RULE>
1

> <JCHEM_NUMBER_OF_RINGS>
3

> <JCHEM_PHYSIOLOGICAL_CHARGE>
-1

> <JCHEM_PKA>
10.97507618266688

> <JCHEM_PKA_STRONGEST_ACIDIC>
3.149449980213596

> <JCHEM_PKA_STRONGEST_BASIC>
-1.149047285054373

> <JCHEM_POLAR_SURFACE_AREA>
173.76

> <JCHEM_REFRACTIVITY>
97.16580000000002

> <JCHEM_ROTATABLE_BOND_COUNT>
8

> <JCHEM_RULE_OF_FIVE>
1

> <ALOGPS_SOLUBILITY>
2.84e-01 g/l

> <JCHEM_TRADITIONAL_IUPAC>
sharox

> <JCHEM_VEBER_RULE>
0

$$$$
6956357
  -OEChem-10051719303D

 46 49  0     1  0  0  0  0  0999 V2000
   -1.7004    2.9139    0.1458 F   0  0  0  0  0  0  0  0  0  0  0  0
   -1.0055   -1.7559   -0.1689 O   0  0  0  0  0  0  0  0  0  0  0  0
    3.3285    2.4204    0.0187 O   0  0  0  0  0  0  0  0  0  0  0  0
    5.7284    1.3740   -0.0263 O   0  5  0  0  0  0  0  0  0  0  0  0
    5.8849   -0.9074   -0.0911 O   0  0  0  0  0  0  0  0  0  0  0  0
   -5.5561    0.1088   -0.0646 N   0  3  0  0  0  0  0  0  0  0  0  0
   -2.7267    0.3579    0.0089 N   0  0  0  0  0  0  0  0  0  0  0  0
    1.8409   -1.3682   -0.1046 N   0  0  0  0  0  0  0  0  0  0  0  0
   -4.8228    0.0134    1.2486 C   0  0  0  0  0  0  0  0  0  0  0  0
   -4.7195   -0.4449   -1.1900 C   0  0  0  0  0  0  0  0  0  0  0  0
   -3.5211    0.7997    1.1594 C   0  0  0  0  0  0  0  0  0  0  0  0
   -3.4209    0.3444   -1.2855 C   0  0  0  0  0  0  0  0  0  0  0  0
   -1.3435    0.5719    0.0007 C   0  0  0  0  0  0  0  0  0  0  0  0
   -0.4541   -0.5004   -0.0889 C   0  0  0  0  0  0  0  0  0  0  0  0
    0.9330   -0.2905   -0.0717 C   0  0  0  0  0  0  0  0  0  0  0  0
    1.2537   -2.7092   -0.0391 C   0  0  2  0  0  0  0  0  0  0  0  0
   -6.9091   -0.5421    0.0003 C   0  0  0  0  0  0  0  0  0  0  0  0
   -0.1013   -2.7017   -0.7485 C   0  0  0  0  0  0  0  0  0  0  0  0
    1.4074    1.0341   -0.0130 C   0  0  0  0  0  0  0  0  0  0  0  0
   -0.8552    1.8756    0.0706 C   0  0  0  0  0  0  0  0  0  0  0  0
    0.5190    2.1122    0.0569 C   0  0  0  0  0  0  0  0  0  0  0  0
    3.1982   -1.1187   -0.0974 C   0  0  0  0  0  0  0  0  0  0  0  0
    1.1377   -3.1613    1.4190 C   0  0  0  0  0  0  0  0  0  0  0  0
    2.8736    1.2843   -0.0167 C   0  0  0  0  0  0  0  0  0  0  0  0
    3.7617    0.0931   -0.0629 C   0  0  0  0  0  0  0  0  0  0  0  0
    5.2691    0.1965   -0.0599 C   0  0  0  0  0  0  0  0  0  0  0  0
   -5.7191    1.1064   -0.2590 H   0  0  0  0  0  0  0  0  0  0  0  0
   -4.6426   -1.0489    1.4500 H   0  0  0  0  0  0  0  0  0  0  0  0
   -5.4737    0.4290    2.0248 H   0  0  0  0  0  0  0  0  0  0  0  0
   -5.2992   -0.3498   -2.1138 H   0  0  0  0  0  0  0  0  0  0  0  0
   -4.5374   -1.5045   -0.9768 H   0  0  0  0  0  0  0  0  0  0  0  0
   -3.7396    1.8712    1.0735 H   0  0  0  0  0  0  0  0  0  0  0  0
   -2.9596    0.6508    2.0899 H   0  0  0  0  0  0  0  0  0  0  0  0
   -2.7916   -0.1160   -2.0570 H   0  0  0  0  0  0  0  0  0  0  0  0
   -3.6234    1.3754   -1.6020 H   0  0  0  0  0  0  0  0  0  0  0  0
    1.9029   -3.4205   -0.5661 H   0  0  0  0  0  0  0  0  0  0  0  0
   -7.4057   -0.3869   -0.9611 H   0  0  0  0  0  0  0  0  0  0  0  0
   -6.7758   -1.6076    0.2057 H   0  0  0  0  0  0  0  0  0  0  0  0
   -7.4800   -0.0574    0.7965 H   0  0  0  0  0  0  0  0  0  0  0  0
    0.0106   -2.4749   -1.8173 H   0  0  0  0  0  0  0  0  0  0  0  0
   -0.5712   -3.6889   -0.6784 H   0  0  0  0  0  0  0  0  0  0  0  0
    0.8765    3.1367    0.1073 H   0  0  0  0  0  0  0  0  0  0  0  0
    3.7733   -2.0377   -0.1192 H   0  0  0  0  0  0  0  0  0  0  0  0
    0.5178   -2.4822    2.0139 H   0  0  0  0  0  0  0  0  0  0  0  0
    0.6973   -4.1620    1.4787 H   0  0  0  0  0  0  0  0  0  0  0  0
    2.1251   -3.2007    1.8922 H   0  0  0  0  0  0  0  0  0  0  0  0
  1 20  1  0  0  0  0
  2 14  1  0  0  0  0
  2 18  1  0  0  0  0
  3 24  2  0  0  0  0
  4 26  1  0  0  0  0
  5 26  2  0  0  0  0
  6  9  1  0  0  0  0
  6 10  1  0  0  0  0
  6 17  1  0  0  0  0
  6 27  1  0  0  0  0
  7 11  1  0  0  0  0
  7 12  1  0  0  0  0
  7 13  1  0  0  0  0
  8 15  1  0  0  0  0
  8 16  1  0  0  0  0
  8 22  1  0  0  0  0
  9 11  1  0  0  0  0
  9 28  1  0  0  0  0
  9 29  1  0  0  0  0
 10 12  1  0  0  0  0
 10 30  1  0  0  0  0
 10 31  1  0  0  0  0
 11 32  1  0  0  0  0
 11 33  1  0  0  0  0
 12 34  1  0  0  0  0
 12 35  1  0  0  0  0
 13 14  1  0  0  0  0
 13 20  2  0  0  0  0
 14 15  2  0  0  0  0
 15 19  1  0  0  0  0
 16 18  1  0  0  0  0
 16 23  1  0  0  0  0
 16 36  1  0  0  0  0
 17 37  1  0  0  0  0
 17 38  1  0  0  0  0
 17 39  1  0  0  0  0
 18 40  1  0  0  0  0
 18 41  1  0  0  0  0
 19 21  2  0  0  0  0
 19 24  1  0  0  0  0
 20 21  1  0  0  0  0
 21 42  1  0  0  0  0
 22 25  2  0  0  0  0
 22 43  1  0  0  0  0
 23 44  1  0  0  0  0
 23 45  1  0  0  0  0
 23 46  1  0  0  0  0
 24 25  1  0  0  0  0
 25 26  1  0  0  0  0
M  CHG  2   4  -1   6   1
M  END
> <DATABASE_ID>
DB01137

> <DATABASE_NAME>
drugbank

> <ORIGINAL_SOURCE>
PUBCHEM

> <ORIGINAL_SOURCE_URL>
https://pubchem.ncbi.nlm.nih.gov/rest/pug/compound/inchikey/GSDSWSVVBLHKDQ-JTQLQIEISA-N/SDF?record_type=3d

> <SMILES>
C[C@H]1COC2=C3N1C=C(C(O)=O)C(=O)C3=CC(F)=C2N1CCN(C)CC1

> <INCHI_IDENTIFIER>
InChI=1S/C18H20FN3O4/c1-10-9-26-17-14-11(16(23)12(18(24)25)8-22(10)14)7-13(19)15(17)21-5-3-20(2)4-6-21/h7-8,10H,3-6,9H2,1-2H3,(H,24,25)/t10-/m0/s1

> <INCHI_KEY>
GSDSWSVVBLHKDQ-JTQLQIEISA-N

> <FORMULA>
C18H20FN3O4

> <MOLECULAR_WEIGHT>
361.3675

> <EXACT_MASS>
361.143784348

> <JCHEM_ACCEPTOR_COUNT>
7

> <JCHEM_AVERAGE_POLARIZABILITY>
36.69213757881419

> <JCHEM_BIOAVAILABILITY>
1

> <JCHEM_DONOR_COUNT>
1

> <JCHEM_FORMAL_CHARGE>
0

> <JCHEM_GHOSE_FILTER>
1

> <JCHEM_IUPAC>
(2S)-7-fluoro-2-methyl-6-(4-methylpiperazin-1-yl)-10-oxo-4-oxa-1-azatricyclo[7.3.1.0⁵,¹³]trideca-5(13),6,8,11-tetraene-11-carboxylic acid

> <ALOGPS_LOGP>
-0.02

> <JCHEM_LOGP>
0.6542797531974264

> <ALOGPS_LOGS>
-2.40

> <JCHEM_MDDR_LIKE_RULE>
0

> <JCHEM_NUMBER_OF_RINGS>
4

> <JCHEM_PHYSIOLOGICAL_CHARGE>
-1

> <JCHEM_PKA_STRONGEST_ACIDIC>
5.447057267648649

> <JCHEM_PKA_STRONGEST_BASIC>
6.201449203748399

> <JCHEM_POLAR_SURFACE_AREA>
73.32

> <JCHEM_REFRACTIVITY>
94.93590000000002

> <JCHEM_ROTATABLE_BOND_COUNT>
2

> <JCHEM_RULE_OF_FIVE>
1

> <ALOGPS_SOLUBILITY>
1.44e+00 g/l

> <JCHEM_TRADITIONAL_IUPAC>
levofloxacin

> <JCHEM_VEBER_RULE>
0

$$$$
9571107
  -OEChem-10051719303D

 48 51  0     1  0  0  0  0  0999 V2000
    1.3953   -2.6702   -0.1828 F   0  0  0  0  0  0  0  0  0  0  0  0
   -3.6642   -2.6129   -0.3086 O   0  0  0  0  0  0  0  0  0  0  0  0
    5.5044   -2.0454   -0.1122 O   0  0  0  0  0  0  0  0  0  0  0  0
   -6.0418   -1.7891    0.4583 O   0  0  0  0  0  0  0  0  0  0  0  0
   -6.5511    0.2668   -0.4043 O   0  0  0  0  0  0  0  0  0  0  0  0
   -2.4988    1.2423    0.2437 N   0  0  0  0  0  0  0  0  0  0  0  0
    2.0901   -0.0623    0.1886 N   0  0  3  0  0  0  0  0  0  0  0  0
   -0.1700    0.5841    0.2186 N   0  0  0  0  0  0  0  0  0  0  0  0
    5.5850   -0.6610    0.0883 N   0  0  0  0  0  0  0  0  0  0  0  0
    4.5628    3.5699   -0.1206 N   0  0  0  0  0  0  0  0  0  0  0  0
   -2.1258    2.6509    0.4807 C   0  0  0  0  0  0  0  0  0  0  0  0
   -2.6062    3.7351   -0.4280 C   0  0  0  0  0  0  0  0  0  0  0  0
   -1.1560    3.3499   -0.4157 C   0  0  0  0  0  0  0  0  0  0  0  0
   -1.4838    0.2461    0.1385 C   0  0  0  0  0  0  0  0  0  0  0  0
    4.0825    1.2523    0.4535 C   0  0  1  0  0  0  0  0  0  0  0  0
    2.5756    1.3181    0.1692 C   0  0  0  0  0  0  0  0  0  0  0  0
    3.1580   -1.0447    0.0823 C   0  0  0  0  0  0  0  0  0  0  0  0
   -3.8305    0.8879    0.1968 C   0  0  0  0  0  0  0  0  0  0  0  0
    4.3864   -0.1926    0.1814 C   0  0  0  0  0  0  0  0  0  0  0  0
    0.7512   -0.4004    0.1085 C   0  0  0  0  0  0  0  0  0  0  0  0
   -1.8718   -1.0904   -0.0507 C   0  0  0  0  0  0  0  0  0  0  0  0
    4.8876    2.2048   -0.4115 C   0  0  0  0  0  0  0  0  0  0  0  0
   -4.2966   -0.3549    0.0217 C   0  0  0  0  0  0  0  0  0  0  0  0
   -3.3094   -1.4546   -0.1294 C   0  0  0  0  0  0  0  0  0  0  0  0
    0.4432   -1.7343   -0.0806 C   0  0  0  0  0  0  0  0  0  0  0  0
   -0.8968   -2.0834   -0.1611 C   0  0  0  0  0  0  0  0  0  0  0  0
   -5.7454   -0.5584   -0.0109 C   0  0  0  0  0  0  0  0  0  0  0  0
    6.8261   -2.5538   -0.2137 C   0  0  0  0  0  0  0  0  0  0  0  0
   -2.0714    2.8822    1.5398 H   0  0  0  0  0  0  0  0  0  0  0  0
   -2.8800    4.6836    0.0175 H   0  0  0  0  0  0  0  0  0  0  0  0
   -3.1843    3.4700   -1.3048 H   0  0  0  0  0  0  0  0  0  0  0  0
   -0.7773    2.8450   -1.2959 H   0  0  0  0  0  0  0  0  0  0  0  0
   -0.4541    4.0382    0.0392 H   0  0  0  0  0  0  0  0  0  0  0  0
    4.2723    1.4272    1.5204 H   0  0  0  0  0  0  0  0  0  0  0  0
    2.0760    1.9283    0.9308 H   0  0  0  0  0  0  0  0  0  0  0  0
    2.3639    1.7570   -0.8134 H   0  0  0  0  0  0  0  0  0  0  0  0
    3.1632   -1.5396   -0.8950 H   0  0  0  0  0  0  0  0  0  0  0  0
    3.1502   -1.7517    0.9184 H   0  0  0  0  0  0  0  0  0  0  0  0
   -4.5016    1.7319    0.3240 H   0  0  0  0  0  0  0  0  0  0  0  0
    4.7203    2.0004   -1.4757 H   0  0  0  0  0  0  0  0  0  0  0  0
    5.9592    2.0513   -0.2398 H   0  0  0  0  0  0  0  0  0  0  0  0
   -1.1635   -3.1260   -0.3075 H   0  0  0  0  0  0  0  0  0  0  0  0
    4.6927    3.7606    0.8721 H   0  0  0  0  0  0  0  0  0  0  0  0
    3.5806    3.7560   -0.3166 H   0  0  0  0  0  0  0  0  0  0  0  0
   -7.0072   -1.9633    0.4520 H   0  0  0  0  0  0  0  0  0  0  0  0
    7.3800   -2.3608    0.7103 H   0  0  0  0  0  0  0  0  0  0  0  0
    7.3435   -2.1011   -1.0653 H   0  0  0  0  0  0  0  0  0  0  0  0
    6.7704   -3.6341   -0.3706 H   0  0  0  0  0  0  0  0  0  0  0  0
  1 25  1  0  0  0  0
  2 24  2  0  0  0  0
  3  9  1  0  0  0  0
  3 28  1  0  0  0  0
  4 27  1  0  0  0  0
  4 45  1  0  0  0  0
  5 27  2  0  0  0  0
  6 11  1  0  0  0  0
  6 14  1  0  0  0  0
  6 18  1  0  0  0  0
  7 16  1  0  0  0  0
  7 17  1  0  0  0  0
  7 20  1  0  0  0  0
  8 14  2  0  0  0  0
  8 20  1  0  0  0  0
  9 19  2  0  0  0  0
 10 22  1  0  0  0  0
 10 43  1  0  0  0  0
 10 44  1  0  0  0  0
 11 12  1  0  0  0  0
 11 13  1  0  0  0  0
 11 29  1  0  0  0  0
 12 13  1  0  0  0  0
 12 30  1  0  0  0  0
 12 31  1  0  0  0  0
 13 32  1  0  0  0  0
 13 33  1  0  0  0  0
 14 21  1  0  0  0  0
 15 16  1  0  0  0  0
 15 19  1  0  0  0  0
 15 22  1  0  0  0  0
 15 34  1  0  0  0  0
 16 35  1  0  0  0  0
 16 36  1  0  0  0  0
 17 19  1  0  0  0  0
 17 37  1  0  0  0  0
 17 38  1  0  0  0  0
 18 23  2  0  0  0  0
 18 39  1  0  0  0  0
 20 25  2  0  0  0  0
 21 24  1  0  0  0  0
 21 26  2  0  0  0  0
 22 40  1  0  0  0  0
 22 41  1  0  0  0  0
 23 24  1  0  0  0  0
 23 27  1  0  0  0  0
 25 26  1  0  0  0  0
 26 42  1  0  0  0  0
 28 46  1  0  0  0  0
 28 47  1  0  0  0  0
 28 48  1  0  0  0  0
M  END
> <DATABASE_ID>
DB01155

> <DATABASE_NAME>
drugbank

> <ORIGINAL_SOURCE>
PUBCHEM

> <ORIGINAL_SOURCE_URL>
https://pubchem.ncbi.nlm.nih.gov/rest/pug/compound/inchikey/ZRCVYEYHRGVLOC-HYARGMPZSA-N/SDF?record_type=3d

> <SMILES>
CO\N=C1/CN(CC1CN)C1=NC2=C(C=C1F)C(=O)C(=CN2C1CC1)C(O)=O

> <INCHI_IDENTIFIER>
InChI=1S/C18H20FN5O4/c1-28-22-14-8-23(6-9(14)5-20)17-13(19)4-11-15(25)12(18(26)27)7-24(10-2-3-10)16(11)21-17/h4,7,9-10H,2-3,5-6,8,20H2,1H3,(H,26,27)/b22-14+

> <INCHI_KEY>
ZRCVYEYHRGVLOC-HYARGMPZSA-N

> <FORMULA>
C18H20FN5O4

> <MOLECULAR_WEIGHT>
389.3809

> <EXACT_MASS>
389.149932358

> <JCHEM_ACCEPTOR_COUNT>
9

> <JCHEM_AVERAGE_POLARIZABILITY>
39.295747882714736

> <JCHEM_BIOAVAILABILITY>
1

> <JCHEM_DONOR_COUNT>
2

> <JCHEM_FORMAL_CHARGE>
0

> <JCHEM_GHOSE_FILTER>
0

> <JCHEM_IUPAC>
7-[(4Z)-3-(aminomethyl)-4-(methoxyimino)pyrrolidin-1-yl]-1-cyclopropyl-6-fluoro-4-oxo-1,4-dihydro-1,8-naphthyridine-3-carboxylic acid

> <ALOGPS_LOGP>
-0.82

> <JCHEM_LOGP>
-0.9184243869137297

> <ALOGPS_LOGS>
-3.27

> <JCHEM_MDDR_LIKE_RULE>
0

> <JCHEM_NUMBER_OF_RINGS>
4

> <JCHEM_PHYSIOLOGICAL_CHARGE>
0

> <JCHEM_PKA_STRONGEST_ACIDIC>
5.5331782535872795

> <JCHEM_PKA_STRONGEST_BASIC>
9.534415369849178

> <JCHEM_POLAR_SURFACE_AREA>
121.35000000000001

> <JCHEM_REFRACTIVITY>
99.74079999999998

> <JCHEM_ROTATABLE_BOND_COUNT>
5

> <JCHEM_RULE_OF_FIVE>
1

> <ALOGPS_SOLUBILITY>
2.10e-01 g/l

> <JCHEM_TRADITIONAL_IUPAC>
gemifloxacin

> <JCHEM_VEBER_RULE>
0

$$$$
6032
  -OEChem-10051719313D

 69 71  0     1  0  0  0  0  0999 V2000
    2.6158   -0.8606    0.3488 O   0  0  0  0  0  0  0  0  0  0  0  0
   -2.1404   -0.3285    0.6532 O   0  0  0  0  0  0  0  0  0  0  0  0
    0.2751    0.6181   -0.5143 O   0  0  0  0  0  0  0  0  0  0  0  0
    3.2182    0.6506   -1.3734 O   0  0  0  0  0  0  0  0  0  0  0  0
   -3.6284    0.0878   -1.1448 O   0  0  0  0  0  0  0  0  0  0  0  0
    5.1483   -1.9865    0.2597 O   0  0  0  0  0  0  0  0  0  0  0  0
   -1.9784    2.4268    1.1601 O   0  0  0  0  0  0  0  0  0  0  0  0
    5.0873    2.7920    0.9699 O   0  0  0  0  0  0  0  0  0  0  0  0
   -4.7726    3.1470    1.3816 O   0  0  0  0  0  0  0  0  0  0  0  0
   -6.5056    0.8850    1.0174 O   0  0  0  0  0  0  0  0  0  0  0  0
    1.7377    2.9213   -1.6756 O   0  0  0  0  0  0  0  0  0  0  0  0
    2.3350   -3.7306    0.1661 N   0  0  0  0  0  0  0  0  0  0  0  0
   -2.5087   -3.2045    0.5095 N   0  0  0  0  0  0  0  0  0  0  0  0
    6.7496    0.4162    0.8898 N   0  0  0  0  0  0  0  0  0  0  0  0
   -5.3156   -2.0059   -1.9602 N   0  0  0  0  0  0  0  0  0  0  0  0
    1.3893   -1.4734   -0.0582 C   0  0  2  0  0  0  0  0  0  0  0  0
   -1.1390   -1.2016    0.1224 C   0  0  1  0  0  0  0  0  0  0  0  0
    0.2307   -0.5435    0.3201 C   0  0  2  0  0  0  0  0  0  0  0  0
    1.2777   -2.8343    0.6420 C   0  0  1  0  0  0  0  0  0  0  0  0
   -1.2282   -2.5646    0.8212 C   0  0  2  0  0  0  0  0  0  0  0  0
   -0.0847   -3.4853    0.3864 C   0  0  0  0  0  0  0  0  0  0  0  0
    3.4677   -0.6189   -0.7695 C   0  0  1  0  0  0  0  0  0  0  0  0
   -2.5788    0.6099   -0.3275 C   0  0  1  0  0  0  0  0  0  0  0  0
    4.9362   -0.7186   -0.3510 C   0  0  1  0  0  0  0  0  0  0  0  0
    5.3099    0.4224    0.6045 C   0  0  2  0  0  0  0  0  0  0  0  0
   -2.9935    1.9489    0.2847 C   0  0  1  0  0  0  0  0  0  0  0  0
    4.9158    1.7742   -0.0134 C   0  0  1  0  0  0  0  0  0  0  0  0
   -4.3101    1.8355    1.0505 C   0  0  2  0  0  0  0  0  0  0  0  0
    3.4556    1.7549   -0.4934 C   0  0  1  0  0  0  0  0  0  0  0  0
   -5.3760    1.1539    0.1901 C   0  0  1  0  0  0  0  0  0  0  0  0
   -4.8439   -0.1477   -0.4248 C   0  0  1  0  0  0  0  0  0  0  0  0
   -5.8337   -0.7622   -1.4107 C   0  0  0  0  0  0  0  0  0  0  0  0
    3.0876    3.0221   -1.2611 C   0  0  0  0  0  0  0  0  0  0  0  0
    1.3538   -1.6240   -1.1471 H   0  0  0  0  0  0  0  0  0  0  0  0
   -1.3201   -1.3556   -0.9526 H   0  0  0  0  0  0  0  0  0  0  0  0
    0.3417   -0.1823    1.3494 H   0  0  0  0  0  0  0  0  0  0  0  0
    1.4201   -2.6997    1.7221 H   0  0  0  0  0  0  0  0  0  0  0  0
   -1.1879   -2.4172    1.9080 H   0  0  0  0  0  0  0  0  0  0  0  0
   -0.1485   -4.4366    0.9317 H   0  0  0  0  0  0  0  0  0  0  0  0
   -0.1869   -3.7272   -0.6812 H   0  0  0  0  0  0  0  0  0  0  0  0
    3.3153   -1.3869   -1.5384 H   0  0  0  0  0  0  0  0  0  0  0  0
   -1.7904    0.8448   -1.0400 H   0  0  0  0  0  0  0  0  0  0  0  0
    5.5718   -0.6552   -1.2445 H   0  0  0  0  0  0  0  0  0  0  0  0
    4.8001    0.2832    1.5666 H   0  0  0  0  0  0  0  0  0  0  0  0
   -3.1163    2.6930   -0.5129 H   0  0  0  0  0  0  0  0  0  0  0  0
    5.5774    2.0009   -0.8593 H   0  0  0  0  0  0  0  0  0  0  0  0
   -4.1671    1.3097    2.0017 H   0  0  0  0  0  0  0  0  0  0  0  0
    2.7715    1.6753    0.3615 H   0  0  0  0  0  0  0  0  0  0  0  0
    2.2653   -4.6273    0.6457 H   0  0  0  0  0  0  0  0  0  0  0  0
    3.2428   -3.3435    0.4179 H   0  0  0  0  0  0  0  0  0  0  0  0
   -2.5778   -4.0923    1.0053 H   0  0  0  0  0  0  0  0  0  0  0  0
   -3.2715   -2.6239    0.8541 H   0  0  0  0  0  0  0  0  0  0  0  0
   -5.7058    1.8398   -0.5996 H   0  0  0  0  0  0  0  0  0  0  0  0
   -4.6571   -0.8800    0.3715 H   0  0  0  0  0  0  0  0  0  0  0  0
    0.3312    0.3242   -1.4396 H   0  0  0  0  0  0  0  0  0  0  0  0
   -6.7922   -0.9615   -0.9207 H   0  0  0  0  0  0  0  0  0  0  0  0
   -6.0167   -0.0699   -2.2408 H   0  0  0  0  0  0  0  0  0  0  0  0
    3.7055    3.1266   -2.1591 H   0  0  0  0  0  0  0  0  0  0  0  0
    3.2013    3.9142   -0.6377 H   0  0  0  0  0  0  0  0  0  0  0  0
    7.0043   -0.4653    1.3332 H   0  0  0  0  0  0  0  0  0  0  0  0
    6.9669    1.1522    1.5605 H   0  0  0  0  0  0  0  0  0  0  0  0
    5.0386   -2.6621   -0.4311 H   0  0  0  0  0  0  0  0  0  0  0  0
   -1.1508    2.4726    0.6516 H   0  0  0  0  0  0  0  0  0  0  0  0
    4.4850    2.5999    1.7087 H   0  0  0  0  0  0  0  0  0  0  0  0
   -4.8979    3.6423    0.5542 H   0  0  0  0  0  0  0  0  0  0  0  0
   -6.2322    0.2516    1.7027 H   0  0  0  0  0  0  0  0  0  0  0  0
   -5.9567   -2.3574   -2.6700 H   0  0  0  0  0  0  0  0  0  0  0  0
   -4.4306   -1.8300   -2.4342 H   0  0  0  0  0  0  0  0  0  0  0  0
    1.5254    3.7354   -2.1631 H   0  0  0  0  0  0  0  0  0  0  0  0
  1 16  1  0  0  0  0
  1 22  1  0  0  0  0
  2 17  1  0  0  0  0
  2 23  1  0  0  0  0
  3 18  1  0  0  0  0
  3 55  1  0  0  0  0
  4 22  1  0  0  0  0
  4 29  1  0  0  0  0
  5 23  1  0  0  0  0
  5 31  1  0  0  0  0
  6 24  1  0  0  0  0
  6 62  1  0  0  0  0
  7 26  1  0  0  0  0
  7 63  1  0  0  0  0
  8 27  1  0  0  0  0
  8 64  1  0  0  0  0
  9 28  1  0  0  0  0
  9 65  1  0  0  0  0
 10 30  1  0  0  0  0
 10 66  1  0  0  0  0
 11 33  1  0  0  0  0
 11 69  1  0  0  0  0
 12 19  1  0  0  0  0
 12 49  1  0  0  0  0
 12 50  1  0  0  0  0
 13 20  1  0  0  0  0
 13 51  1  0  0  0  0
 13 52  1  0  0  0  0
 14 25  1  0  0  0  0
 14 60  1  0  0  0  0
 14 61  1  0  0  0  0
 15 32  1  0  0  0  0
 15 67  1  0  0  0  0
 15 68  1  0  0  0  0
 16 18  1  0  0  0  0
 16 19  1  0  0  0  0
 16 34  1  0  0  0  0
 17 18  1  0  0  0  0
 17 20  1  0  0  0  0
 17 35  1  0  0  0  0
 18 36  1  0  0  0  0
 19 21  1  0  0  0  0
 19 37  1  0  0  0  0
 20 21  1  0  0  0  0
 20 38  1  0  0  0  0
 21 39  1  0  0  0  0
 21 40  1  0  0  0  0
 22 24  1  0  0  0  0
 22 41  1  0  0  0  0
 23 26  1  0  0  0  0
 23 42  1  0  0  0  0
 24 25  1  0  0  0  0
 24 43  1  0  0  0  0
 25 27  1  0  0  0  0
 25 44  1  0  0  0  0
 26 28  1  0  0  0  0
 26 45  1  0  0  0  0
 27 29  1  0  0  0  0
 27 46  1  0  0  0  0
 28 30  1  0  0  0  0
 28 47  1  0  0  0  0
 29 33  1  0  0  0  0
 29 48  1  0  0  0  0
 30 31  1  0  0  0  0
 30 53  1  0  0  0  0
 31 32  1  0  0  0  0
 31 54  1  0  0  0  0
 32 56  1  0  0  0  0
 32 57  1  0  0  0  0
 33 58  1  0  0  0  0
 33 59  1  0  0  0  0
M  END
> <DATABASE_ID>
DB01172

> <DATABASE_NAME>
drugbank

> <ORIGINAL_SOURCE>
PUBCHEM

> <ORIGINAL_SOURCE_URL>
https://pubchem.ncbi.nlm.nih.gov/rest/pug/compound/inchikey/SBUJHOSQTJFQJX-NOAMYHISSA-N/SDF?record_type=3d

> <SMILES>
NC[C@H]1O[C@H](O[C@@H]2[C@@H](N)C[C@@H](N)[C@H](O[C@H]3O[C@H](CO)[C@@H](O)[C@H](N)[C@H]3O)[C@H]2O)[C@H](O)[C@@H](O)[C@@H]1O

> <INCHI_IDENTIFIER>
InChI=1S/C18H36N4O11/c19-2-6-10(25)12(27)13(28)18(30-6)33-16-5(21)1-4(20)15(14(16)29)32-17-11(26)8(22)9(24)7(3-23)31-17/h4-18,23-29H,1-3,19-22H2/t4-,5+,6-,7-,8+,9-,10-,11-,12+,13-,14-,15+,16-,17-,18-/m1/s1

> <INCHI_KEY>
SBUJHOSQTJFQJX-NOAMYHISSA-N

> <FORMULA>
C18H36N4O11

> <MOLECULAR_WEIGHT>
484.4986

> <EXACT_MASS>
484.238058014

> <JCHEM_ACCEPTOR_COUNT>
15

> <JCHEM_AVERAGE_POLARIZABILITY>
47.572622511495894

> <JCHEM_BIOAVAILABILITY>
0

> <JCHEM_DONOR_COUNT>
11

> <JCHEM_FORMAL_CHARGE>
0

> <JCHEM_GHOSE_FILTER>
0

> <JCHEM_IUPAC>
(2R,3S,4S,5R,6R)-2-(aminomethyl)-6-{[(1R,2R,3S,4R,6S)-4,6-diamino-3-{[(2S,3R,4S,5S,6R)-4-amino-3,5-dihydroxy-6-(hydroxymethyl)oxan-2-yl]oxy}-2-hydroxycyclohexyl]oxy}oxane-3,4,5-triol

> <ALOGPS_LOGP>
-3.10

> <JCHEM_LOGP>
-7.060913449000002

> <ALOGPS_LOGS>
-0.72

> <JCHEM_MDDR_LIKE_RULE>
1

> <JCHEM_NUMBER_OF_RINGS>
3

> <JCHEM_PHYSIOLOGICAL_CHARGE>
4

> <JCHEM_PKA>
12.74656480593374

> <JCHEM_PKA_STRONGEST_ACIDIC>
12.109839881761873

> <JCHEM_PKA_STRONGEST_BASIC>
9.749899394708958

> <JCHEM_POLAR_SURFACE_AREA>
282.60999999999996

> <JCHEM_REFRACTIVITY>
106.13449999999996

> <JCHEM_ROTATABLE_BOND_COUNT>
6

> <JCHEM_RULE_OF_FIVE>
0

> <ALOGPS_SOLUBILITY>
9.23e+01 g/l

> <JCHEM_TRADITIONAL_IUPAC>
kanamycin

> <JCHEM_VEBER_RULE>
0

$$$$

  Mrv1909 11041923332D          

 40 44  0  0  0  0            999 V2000
   -3.5106   -0.2061    0.0000 C   0  0  0  0  0  0  0  0  0  0  0  0
   -3.5106    0.6187    0.0000 C   0  0  0  0  0  0  0  0  0  0  0  0
   -0.6529   -0.2061    0.0000 C   0  0  1  0  0  0  0  0  0  0  0  0
   -0.6529    0.6187    0.0000 C   0  0  2  0  0  0  0  0  0  0  0  0
   -1.3673   -0.6187    0.0000 C   0  0  0  0  0  0  0  0  0  0  0  0
   -1.3673    1.0312    0.0000 C   0  0  0  0  0  0  0  0  0  0  0  0
   -2.0818   -0.2061    0.0000 C   0  0  1  0  0  0  0  0  0  0  0  0
   -2.0818    0.6187    0.0000 C   0  0  0  0  0  0  0  0  0  0  0  0
   -2.7962    1.0312    0.0000 C   0  0  0  0  0  0  0  0  0  0  0  0
   -2.7962   -0.6187    0.0000 C   0  0  2  0  0  0  0  0  0  0  0  0
    0.0615   -0.6187    0.0000 C   0  0  1  0  0  0  0  0  0  0  0  0
    0.0615    1.0312    0.0000 C   0  0  0  0  0  0  0  0  0  0  0  0
   -0.6529    1.4437    0.0000 O   0  0  0  0  0  0  0  0  0  0  0  0
    0.7759   -0.2061    0.0000 C   0  0  0  0  0  0  0  0  0  0  0  0
    0.0615   -1.4437    0.0000 N   0  0  0  0  0  0  0  0  0  0  0  0
   -1.3673    1.8562    0.0000 O   0  0  0  0  0  0  0  0  0  0  0  0
    0.7759    0.6187    0.0000 C   0  0  0  0  0  0  0  0  0  0  0  0
    0.0615    1.8562    0.0000 O   0  0  0  0  0  0  0  0  0  0  0  0
    1.4905   -0.6187    0.0000 O   0  0  0  0  0  0  0  0  0  0  0  0
    0.7759   -1.8562    0.0000 C   0  0  0  0  0  0  0  0  0  0  0  0
   -0.6529   -1.8562    0.0000 C   0  0  0  0  0  0  0  0  0  0  0  0
    1.4905    1.0312    0.0000 C   0  0  0  0  0  0  0  0  0  0  0  0
   -2.7962    1.8562    0.0000 O   0  0  0  0  0  0  0  0  0  0  0  0
    2.2048    0.6187    0.0000 N   0  0  0  0  0  0  0  0  0  0  0  0
    1.4905    1.8562    0.0000 O   0  0  0  0  0  0  0  0  0  0  0  0
   -4.2251   -0.6187    0.0000 C   0  0  0  0  0  0  0  0  0  0  0  0
   -4.2251    1.0312    0.0000 C   0  0  0  0  0  0  0  0  0  0  0  0
   -4.9396   -0.2061    0.0000 C   0  0  0  0  0  0  0  0  0  0  0  0
   -4.9396    0.6187    0.0000 C   0  0  0  0  0  0  0  0  0  0  0  0
   -4.2251    1.8562    0.0000 O   0  0  0  0  0  0  0  0  0  0  0  0
   -0.6529   -1.0312    0.0000 H   0  0  0  0  0  0  0  0  0  0  0  0
   -2.0818   -1.0312    0.0000 H   0  0  0  0  0  0  0  0  0  0  0  0
   -3.5106   -1.0312    0.0000 O   0  0  0  0  0  0  0  0  0  0  0  0
   -2.7962   -1.4437    0.0000 C   0  0  0  0  0  0  0  0  0  0  0  0
    2.9193    1.0312    0.0000 C   0  0  0  0  0  0  0  0  0  0  0  0
    3.6339    0.6186    0.0000 N   0  0  0  0  0  0  0  0  0  0  0  0
    4.3875    0.9542    0.0000 C   0  0  0  0  0  0  0  0  0  0  0  0
    3.7200   -0.2018    0.0000 C   0  0  0  0  0  0  0  0  0  0  0  0
    4.9396    0.3410    0.0000 C   0  0  0  0  0  0  0  0  0  0  0  0
    4.5272   -0.3733    0.0000 C   0  0  0  0  0  0  0  0  0  0  0  0
  1 26  2  0  0  0  0
  1  2  1  0  0  0  0
  2 27  2  0  0  0  0
  3 11  1  0  0  0  0
  3 31  1  1  0  0  0
  3  4  1  0  0  0  0
  4 12  1  0  0  0  0
  4 13  1  1  0  0  0
  3  5  1  0  0  0  0
  4  6  1  0  0  0  0
  6 16  1  0  0  0  0
  5  7  1  0  0  0  0
  7 32  1  1  0  0  0
  7  8  1  0  0  0  0
  6  8  2  0  0  0  0
  8  9  1  0  0  0  0
  9  2  1  0  0  0  0
  9 23  2  0  0  0  0
  7 10  1  0  0  0  0
 10  1  1  0  0  0  0
 10 34  1  1  0  0  0
 10 33  1  0  0  0  0
 11 14  1  0  0  0  0
 11 15  1  1  0  0  0
 12 17  1  0  0  0  0
 12 18  2  0  0  0  0
 14 19  1  0  0  0  0
 14 17  2  0  0  0  0
 15 20  1  0  0  0  0
 15 21  1  0  0  0  0
 17 22  1  0  0  0  0
 22 24  1  0  0  0  0
 22 25  2  0  0  0  0
 26 28  1  0  0  0  0
 27 29  1  0  0  0  0
 27 30  1  0  0  0  0
 28 29  2  0  0  0  0
 24 35  1  0  0  0  0
 37 36  1  0  0  0  0
 38 36  1  0  0  0  0
 39 37  1  0  0  0  0
 40 38  1  0  0  0  0
 40 39  1  0  0  0  0
 35 36  1  0  0  0  0
M  END
> <DATABASE_ID>
DB01301

> <DATABASE_NAME>
drugbank

> <SMILES>
[H][C@@]12C[C@@]3([H])C(C(=O)C4=C(O)C=CC=C4[C@@]3(C)O)=C(O)[C@]1(O)C(=O)C(C(=O)NCN1CCCC1)=C(O)[C@H]2N(C)C

> <INCHI_IDENTIFIER>
InChI=1S/C27H33N3O8/c1-26(37)13-7-6-8-16(31)17(13)21(32)18-14(26)11-15-20(29(2)3)22(33)19(24(35)27(15,38)23(18)34)25(36)28-12-30-9-4-5-10-30/h6-8,14-15,20,31,33-34,37-38H,4-5,9-12H2,1-3H3,(H,28,36)/t14-,15-,20-,26+,27-/m0/s1

> <INCHI_KEY>
HMEYVGGHISAPJR-IAHYZSEUSA-N

> <FORMULA>
C27H33N3O8

> <MOLECULAR_WEIGHT>
527.5662

> <EXACT_MASS>
527.226765047

> <JCHEM_ACCEPTOR_COUNT>
10

> <JCHEM_ATOM_COUNT>
71

> <JCHEM_AVERAGE_POLARIZABILITY>
54.37491780406887

> <JCHEM_BIOAVAILABILITY>
0

> <JCHEM_DONOR_COUNT>
6

> <JCHEM_FORMAL_CHARGE>
0

> <JCHEM_GHOSE_FILTER>
0

> <JCHEM_IUPAC>
(4S,4aS,5aS,6S,12aS)-4-(dimethylamino)-3,6,10,12,12a-pentahydroxy-6-methyl-1,11-dioxo-N-[(pyrrolidin-1-yl)methyl]-1,4,4a,5,5a,6,11,12a-octahydrotetracene-2-carboxamide

> <ALOGPS_LOGP>
-0.08

> <JCHEM_LOGP>
-3.038132154630802

> <ALOGPS_LOGS>
-2.47

> <JCHEM_MDDR_LIKE_RULE>
0

> <JCHEM_NUMBER_OF_RINGS>
5

> <JCHEM_PHYSIOLOGICAL_CHARGE>
0

> <JCHEM_PKA>
7.468956174144231

> <JCHEM_PKA_STRONGEST_ACIDIC>
3.254111422987745

> <JCHEM_PKA_STRONGEST_BASIC>
9.262811455182051

> <JCHEM_POLAR_SURFACE_AREA>
170.86999999999998

> <JCHEM_REFRACTIVITY>
139.45460000000003

> <JCHEM_ROTATABLE_BOND_COUNT>
4

> <JCHEM_RULE_OF_FIVE>
0

> <ALOGPS_SOLUBILITY>
1.81e+00 g/l

> <JCHEM_TRADITIONAL_IUPAC>
atovaquone

> <JCHEM_VEBER_RULE>
0

> <DRUGBANK_ID>
DB01301

> <DRUG_GROUPS>
approved

> <GENERIC_NAME>
Rolitetracycline

> <SYNONYMS>
N-(1-Pyrrolidinylmethyl)-tetracycline; N-(Pyrrolidinomethyl)tetracycline; Pyrrolidino-methyl-tetracycline; Rolitetraciclina; Rolitetracycline; Rolitetracyclinum

> <PRODUCTS>
Reverin 275mg

> <INTERNATIONAL_BRANDS>
Reverin; Synterin

$$$$
441397
  -OEChem-10051719383D

 59 61  0     1  0  0  0  0  0999 V2000
    1.5499    0.9036   -1.3263 S   0  0  0  0  0  0  0  0  0  0  0  0
   -0.3078    1.2354    2.6550 O   0  0  0  0  0  0  0  0  0  0  0  0
   -3.2653    0.5782   -0.4681 O   0  0  0  0  0  0  0  0  0  0  0  0
   -2.5402    2.7721   -0.5282 O   0  0  0  0  0  0  0  0  0  0  0  0
    4.4932    1.9503    0.5207 O   0  0  0  0  0  0  0  0  0  0  0  0
   -5.5177   -0.1757   -0.5563 O   0  0  0  0  0  0  0  0  0  0  0  0
   -6.3616   -1.9962    0.3555 O   0  0  0  0  0  0  0  0  0  0  0  0
   -4.7899   -0.7977    1.5408 O   0  0  0  0  0  0  0  0  0  0  0  0
   -0.1402    1.8697    0.3879 N   0  0  0  0  0  0  0  0  0  0  0  0
    2.6725    0.9305    1.5312 N   0  0  0  0  0  0  0  0  0  0  0  0
    6.1700    0.1140    1.7240 N   0  0  0  0  0  0  0  0  0  0  0  0
    1.1887    2.2282   -0.1165 C   0  0  1  0  0  0  0  0  0  0  0  0
   -0.2587    0.7343   -1.7389 C   0  0  0  0  0  0  0  0  0  0  0  0
   -0.9643    0.9625   -0.3849 C   0  0  2  0  0  0  0  0  0  0  0  0
    1.7145    2.0231    1.3108 C   0  0  1  0  0  0  0  0  0  0  0  0
    0.2603    1.6647    1.6765 C   0  0  0  0  0  0  0  0  0  0  0  0
   -0.5173   -0.6761   -2.2719 C   0  0  0  0  0  0  0  0  0  0  0  0
   -0.5964    1.7737   -2.8164 C   0  0  0  0  0  0  0  0  0  0  0  0
   -2.3289    1.5686   -0.4691 C   0  0  0  0  0  0  0  0  0  0  0  0
    4.0032    0.9884    1.1100 C   0  0  0  0  0  0  0  0  0  0  0  0
    4.7871   -0.2779    1.4366 C   0  0  1  0  0  0  0  0  0  0  0  0
   -4.6484    0.9765   -0.5438 C   0  0  2  0  0  0  0  0  0  0  0  0
    4.6945   -1.2780    0.3028 C   0  0  0  0  0  0  0  0  0  0  0  0
   -4.8780    1.7233   -1.8502 C   0  0  0  0  0  0  0  0  0  0  0  0
    3.6668   -2.2042    0.3028 C   0  0  0  0  0  0  0  0  0  0  0  0
    5.6399   -1.2425   -0.7065 C   0  0  0  0  0  0  0  0  0  0  0  0
    3.5817   -3.1254   -0.7413 C   0  0  0  0  0  0  0  0  0  0  0  0
    5.5548   -2.1636   -1.7505 C   0  0  0  0  0  0  0  0  0  0  0  0
   -5.4846   -0.9718    0.5488 C   0  0  0  0  0  0  0  0  0  0  0  0
    4.5257   -3.1051   -1.7677 C   0  0  0  0  0  0  0  0  0  0  0  0
   -6.4567   -2.9388    1.4285 C   0  0  0  0  0  0  0  0  0  0  0  0
   -5.4468   -4.0441    1.2048 C   0  0  0  0  0  0  0  0  0  0  0  0
    1.2348    3.2508   -0.5020 H   0  0  0  0  0  0  0  0  0  0  0  0
   -1.0278    0.0301    0.1931 H   0  0  0  0  0  0  0  0  0  0  0  0
    2.0455    2.9472    1.7998 H   0  0  0  0  0  0  0  0  0  0  0  0
   -1.5813   -0.8156   -2.4951 H   0  0  0  0  0  0  0  0  0  0  0  0
   -0.2329   -1.4458   -1.5449 H   0  0  0  0  0  0  0  0  0  0  0  0
    0.0388   -0.8669   -3.1971 H   0  0  0  0  0  0  0  0  0  0  0  0
   -1.6441    1.6892   -3.1273 H   0  0  0  0  0  0  0  0  0  0  0  0
    0.0126    1.6292   -3.7169 H   0  0  0  0  0  0  0  0  0  0  0  0
   -0.4394    2.8009   -2.4691 H   0  0  0  0  0  0  0  0  0  0  0  0
    2.3628    0.0866    2.0076 H   0  0  0  0  0  0  0  0  0  0  0  0
    4.3862   -0.7281    2.3535 H   0  0  0  0  0  0  0  0  0  0  0  0
   -4.9088    1.6066    0.3156 H   0  0  0  0  0  0  0  0  0  0  0  0
    6.1838    0.7545    2.5173 H   0  0  0  0  0  0  0  0  0  0  0  0
    6.7008   -0.7050    2.0198 H   0  0  0  0  0  0  0  0  0  0  0  0
   -4.4306    2.7188   -1.8698 H   0  0  0  0  0  0  0  0  0  0  0  0
   -4.4640    1.1591   -2.6940 H   0  0  0  0  0  0  0  0  0  0  0  0
   -5.9510    1.8428   -2.0376 H   0  0  0  0  0  0  0  0  0  0  0  0
    2.9264   -2.2279    1.0968 H   0  0  0  0  0  0  0  0  0  0  0  0
    6.4414   -0.5107   -0.7317 H   0  0  0  0  0  0  0  0  0  0  0  0
    2.7796   -3.8576   -0.7554 H   0  0  0  0  0  0  0  0  0  0  0  0
    6.2870   -2.1452   -2.5526 H   0  0  0  0  0  0  0  0  0  0  0  0
    4.4586   -3.8214   -2.5814 H   0  0  0  0  0  0  0  0  0  0  0  0
   -7.4702   -3.3523    1.4068 H   0  0  0  0  0  0  0  0  0  0  0  0
   -6.3234   -2.4610    2.4057 H   0  0  0  0  0  0  0  0  0  0  0  0
   -5.5333   -4.8115    1.9792 H   0  0  0  0  0  0  0  0  0  0  0  0
   -5.5968   -4.5126    0.2265 H   0  0  0  0  0  0  0  0  0  0  0  0
   -4.4251   -3.6509    1.2159 H   0  0  0  0  0  0  0  0  0  0  0  0
  1 12  1  0  0  0  0
  1 13  1  0  0  0  0
  2 16  2  0  0  0  0
  3 19  1  0  0  0  0
  3 22  1  0  0  0  0
  4 19  2  0  0  0  0
  5 20  2  0  0  0  0
  6 22  1  0  0  0  0
  6 29  1  0  0  0  0
  7 29  1  0  0  0  0
  7 31  1  0  0  0  0
  8 29  2  0  0  0  0
  9 12  1  0  0  0  0
  9 14  1  0  0  0  0
  9 16  1  0  0  0  0
 10 15  1  0  0  0  0
 10 20  1  0  0  0  0
 10 42  1  0  0  0  0
 11 21  1  0  0  0  0
 11 45  1  0  0  0  0
 11 46  1  0  0  0  0
 12 15  1  0  0  0  0
 12 33  1  0  0  0  0
 13 14  1  0  0  0  0
 13 17  1  0  0  0  0
 13 18  1  0  0  0  0
 14 19  1  0  0  0  0
 14 34  1  0  0  0  0
 15 16  1  0  0  0  0
 15 35  1  0  0  0  0
 17 36  1  0  0  0  0
 17 37  1  0  0  0  0
 17 38  1  0  0  0  0
 18 39  1  0  0  0  0
 18 40  1  0  0  0  0
 18 41  1  0  0  0  0
 20 21  1  0  0  0  0
 21 23  1  0  0  0  0
 21 43  1  0  0  0  0
 22 24  1  0  0  0  0
 22 44  1  0  0  0  0
 23 25  2  0  0  0  0
 23 26  1  0  0  0  0
 24 47  1  0  0  0  0
 24 48  1  0  0  0  0
 24 49  1  0  0  0  0
 25 27  1  0  0  0  0
 25 50  1  0  0  0  0
 26 28  2  0  0  0  0
 26 51  1  0  0  0  0
 27 30  2  0  0  0  0
 27 52  1  0  0  0  0
 28 30  1  0  0  0  0
 28 53  1  0  0  0  0
 30 54  1  0  0  0  0
 31 32  1  0  0  0  0
 31 55  1  0  0  0  0
 31 56  1  0  0  0  0
 32 57  1  0  0  0  0
 32 58  1  0  0  0  0
 32 59  1  0  0  0  0
M  END
> <DATABASE_ID>
DB01602

> <DATABASE_NAME>
drugbank

> <ORIGINAL_SOURCE>
PUBCHEM

> <ORIGINAL_SOURCE_URL>
https://pubchem.ncbi.nlm.nih.gov/rest/pug/compound/inchikey/PFOLLRNADZZWEX-FFGRCDKISA-N/SDF?record_type=3d

> <SMILES>
[H][C@]12SC(C)(C)[C@@H](N1C(=O)[C@H]2NC(=O)[C@H](N)C1=CC=CC=C1)C(=O)OC(C)OC(=O)OCC

> <INCHI_IDENTIFIER>
InChI=1S/C21H27N3O7S/c1-5-29-20(28)31-11(2)30-19(27)15-21(3,4)32-18-14(17(26)24(15)18)23-16(25)13(22)12-9-7-6-8-10-12/h6-11,13-15,18H,5,22H2,1-4H3,(H,23,25)/t11?,13-,14-,15+,18-/m1/s1

> <INCHI_KEY>
PFOLLRNADZZWEX-FFGRCDKISA-N

> <FORMULA>
C21H27N3O7S

> <MOLECULAR_WEIGHT>
465.52

> <EXACT_MASS>
465.156970923

> <JCHEM_ACCEPTOR_COUNT>
6

> <JCHEM_AVERAGE_POLARIZABILITY>
46.804522691634816

> <JCHEM_BIOAVAILABILITY>
1

> <JCHEM_DONOR_COUNT>
2

> <JCHEM_FORMAL_CHARGE>
0

> <JCHEM_GHOSE_FILTER>
1

> <JCHEM_IUPAC>
1-[(ethoxycarbonyl)oxy]ethyl (2S,5R,6R)-6-[(2R)-2-amino-2-phenylacetamido]-3,3-dimethyl-7-oxo-4-thia-1-azabicyclo[3.2.0]heptane-2-carboxylate

> <ALOGPS_LOGP>
1.17

> <JCHEM_LOGP>
1.471288066666666

> <ALOGPS_LOGS>
-3.58

> <JCHEM_MDDR_LIKE_RULE>
1

> <JCHEM_NUMBER_OF_RINGS>
3

> <JCHEM_PHYSIOLOGICAL_CHARGE>
1

> <JCHEM_PKA>
14.348872411368657

> <JCHEM_PKA_STRONGEST_ACIDIC>
11.72011839374805

> <JCHEM_PKA_STRONGEST_BASIC>
7.438310344205282

> <JCHEM_POLAR_SURFACE_AREA>
137.26

> <JCHEM_REFRACTIVITY>
113.76040000000003

> <JCHEM_ROTATABLE_BOND_COUNT>
10

> <JCHEM_RULE_OF_FIVE>
1

> <ALOGPS_SOLUBILITY>
1.23e-01 g/l

> <JCHEM_TRADITIONAL_IUPAC>
bacampicillin

> <JCHEM_VEBER_RULE>
0

$$$$
6087
  -OEChem-10051719383D

 46 48  0     1  0  0  0  0  0999 V2000
   -1.5677    1.5735    0.4355 S   0  0  0  0  0  0  0  0  0  0  0  0
   -1.7272   -2.6673   -0.7486 O   0  0  0  0  0  0  0  0  0  0  0  0
   -5.6450   -0.0358   -1.3787 O   0  0  0  0  0  0  0  0  0  0  0  0
   -5.1925   -1.4572    0.3449 O   0  0  0  0  0  0  0  0  0  0  0  0
    1.9625   -0.6125    2.0626 O   0  0  0  0  0  0  0  0  0  0  0  0
    2.2372    2.3150    0.4677 O   0  0  0  0  0  0  0  0  0  0  0  0
    3.4902   -2.2189   -0.4830 O   0  0  0  0  0  0  0  0  0  0  0  0
   -2.6222   -0.7957    0.3767 N   0  0  0  0  0  0  0  0  0  0  0  0
    0.5486   -0.6410    0.2271 N   0  0  0  0  0  0  0  0  0  0  0  0
   -1.7259   -0.0500    1.2652 C   0  0  1  0  0  0  0  0  0  0  0  0
   -3.2962    1.4370   -0.2455 C   0  0  0  0  0  0  0  0  0  0  0  0
   -3.4434   -0.0656   -0.5677 C   0  0  2  0  0  0  0  0  0  0  0  0
   -0.6479   -1.0958    0.9491 C   0  0  1  0  0  0  0  0  0  0  0  0
   -1.7102   -1.7566    0.0480 C   0  0  0  0  0  0  0  0  0  0  0  0
   -4.2671    1.9574    0.8231 C   0  0  0  0  0  0  0  0  0  0  0  0
   -3.4014    2.2915   -1.5099 C   0  0  0  0  0  0  0  0  0  0  0  0
   -4.8320   -0.6100   -0.4585 C   0  0  0  0  0  0  0  0  0  0  0  0
    1.7535   -0.4413    0.8644 C   0  0  0  0  0  0  0  0  0  0  0  0
    2.8575    0.0450   -0.0026 C   0  0  0  0  0  0  0  0  0  0  0  0
    3.0397    1.4060   -0.1547 C   0  0  0  0  0  0  0  0  0  0  0  0
    3.6709   -0.8764   -0.6335 C   0  0  0  0  0  0  0  0  0  0  0  0
    4.0756    1.8633   -0.9695 C   0  0  0  0  0  0  0  0  0  0  0  0
    4.7066   -0.4190   -1.4483 C   0  0  0  0  0  0  0  0  0  0  0  0
    4.9090    0.9508   -1.6162 C   0  0  0  0  0  0  0  0  0  0  0  0
    2.6395    2.7535    1.7635 C   0  0  0  0  0  0  0  0  0  0  0  0
    4.1878   -2.8501    0.5887 C   0  0  0  0  0  0  0  0  0  0  0  0
   -2.0791   -0.0232    2.3000 H   0  0  0  0  0  0  0  0  0  0  0  0
   -3.0689   -0.3030   -1.5727 H   0  0  0  0  0  0  0  0  0  0  0  0
   -0.3956   -1.7382    1.8022 H   0  0  0  0  0  0  0  0  0  0  0  0
   -4.2487    1.3469    1.7329 H   0  0  0  0  0  0  0  0  0  0  0  0
   -4.0327    2.9902    1.1081 H   0  0  0  0  0  0  0  0  0  0  0  0
   -5.2987    1.9609    0.4540 H   0  0  0  0  0  0  0  0  0  0  0  0
   -3.2034    3.3489   -1.2978 H   0  0  0  0  0  0  0  0  0  0  0  0
   -2.6925    1.9675   -2.2809 H   0  0  0  0  0  0  0  0  0  0  0  0
   -4.4050    2.2332   -1.9446 H   0  0  0  0  0  0  0  0  0  0  0  0
    0.4953   -0.4531   -0.7716 H   0  0  0  0  0  0  0  0  0  0  0  0
   -6.5620   -0.3793   -1.3227 H   0  0  0  0  0  0  0  0  0  0  0  0
    4.2388    2.9289   -1.1058 H   0  0  0  0  0  0  0  0  0  0  0  0
    5.3595   -1.1238   -1.9561 H   0  0  0  0  0  0  0  0  0  0  0  0
    5.7152    1.3069   -2.2507 H   0  0  0  0  0  0  0  0  0  0  0  0
    1.8390    3.3720    2.1786 H   0  0  0  0  0  0  0  0  0  0  0  0
    3.5471    3.3609    1.6896 H   0  0  0  0  0  0  0  0  0  0  0  0
    2.8120    1.9084    2.4362 H   0  0  0  0  0  0  0  0  0  0  0  0
    3.8657   -3.8938    0.6383 H   0  0  0  0  0  0  0  0  0  0  0  0
    3.9647   -2.3703    1.5460 H   0  0  0  0  0  0  0  0  0  0  0  0
    5.2662   -2.8263    0.4027 H   0  0  0  0  0  0  0  0  0  0  0  0
  1 10  1  0  0  0  0
  1 11  1  0  0  0  0
  2 14  2  0  0  0  0
  3 17  1  0  0  0  0
  3 37  1  0  0  0  0
  4 17  2  0  0  0  0
  5 18  2  0  0  0  0
  6 20  1  0  0  0  0
  6 25  1  0  0  0  0
  7 21  1  0  0  0  0
  7 26  1  0  0  0  0
  8 10  1  0  0  0  0
  8 12  1  0  0  0  0
  8 14  1  0  0  0  0
  9 13  1  0  0  0  0
  9 18  1  0  0  0  0
  9 36  1  0  0  0  0
 10 13  1  0  0  0  0
 10 27  1  0  0  0  0
 11 12  1  0  0  0  0
 11 15  1  0  0  0  0
 11 16  1  0  0  0  0
 12 17  1  0  0  0  0
 12 28  1  0  0  0  0
 13 14  1  0  0  0  0
 13 29  1  0  0  0  0
 15 30  1  0  0  0  0
 15 31  1  0  0  0  0
 15 32  1  0  0  0  0
 16 33  1  0  0  0  0
 16 34  1  0  0  0  0
 16 35  1  0  0  0  0
 18 19  1  0  0  0  0
 19 20  2  0  0  0  0
 19 21  1  0  0  0  0
 20 22  1  0  0  0  0
 21 23  2  0  0  0  0
 22 24  2  0  0  0  0
 22 38  1  0  0  0  0
 23 24  1  0  0  0  0
 23 39  1  0  0  0  0
 24 40  1  0  0  0  0
 25 41  1  0  0  0  0
 25 42  1  0  0  0  0
 25 43  1  0  0  0  0
 26 44  1  0  0  0  0
 26 45  1  0  0  0  0
 26 46  1  0  0  0  0
M  END
> <DATABASE_ID>
DB01603

> <DATABASE_NAME>
drugbank

> <ORIGINAL_SOURCE>
PUBCHEM

> <ORIGINAL_SOURCE_URL>
https://pubchem.ncbi.nlm.nih.gov/rest/pug/compound/inchikey/RJQXTJLFIWVMTO-TYNCELHUSA-N/SDF?record_type=3d

> <SMILES>
[H][C@]12SC(C)(C)[C@@H](N1C(=O)[C@H]2NC(=O)C1=C(OC)C=CC=C1OC)C(O)=O

> <INCHI_IDENTIFIER>
InChI=1S/C17H20N2O6S/c1-17(2)12(16(22)23)19-14(21)11(15(19)26-17)18-13(20)10-8(24-3)6-5-7-9(10)25-4/h5-7,11-12,15H,1-4H3,(H,18,20)(H,22,23)/t11-,12+,15-/m1/s1

> <INCHI_KEY>
RJQXTJLFIWVMTO-TYNCELHUSA-N

> <FORMULA>
C17H20N2O6S

> <MOLECULAR_WEIGHT>
380.415

> <EXACT_MASS>
380.104207072

> <JCHEM_ACCEPTOR_COUNT>
6

> <JCHEM_AVERAGE_POLARIZABILITY>
37.271308308670214

> <JCHEM_BIOAVAILABILITY>
1

> <JCHEM_DONOR_COUNT>
2

> <JCHEM_FORMAL_CHARGE>
0

> <JCHEM_GHOSE_FILTER>
1

> <JCHEM_IUPAC>
(2S,5R,6R)-6-(2,6-dimethoxybenzamido)-3,3-dimethyl-7-oxo-4-thia-1-azabicyclo[3.2.0]heptane-2-carboxylic acid

> <ALOGPS_LOGP>
1.79

> <JCHEM_LOGP>
0.7851700403333338

> <ALOGPS_LOGS>
-3.09

> <JCHEM_MDDR_LIKE_RULE>
0

> <JCHEM_NUMBER_OF_RINGS>
3

> <JCHEM_PHYSIOLOGICAL_CHARGE>
-1

> <JCHEM_PKA>
13.328155958919588

> <JCHEM_PKA_STRONGEST_ACIDIC>
2.964298910682354

> <JCHEM_PKA_STRONGEST_BASIC>
-1.839287035616584

> <JCHEM_POLAR_SURFACE_AREA>
105.17

> <JCHEM_REFRACTIVITY>
93.40280000000001

> <JCHEM_ROTATABLE_BOND_COUNT>
5

> <JCHEM_RULE_OF_FIVE>
1

> <ALOGPS_SOLUBILITY>
3.10e-01 g/l

> <JCHEM_TRADITIONAL_IUPAC>
methicillin

> <JCHEM_VEBER_RULE>
0

$$$$
33478
  -OEChem-10051719383D

 61 63  0     1  0  0  0  0  0999 V2000
    1.1522    0.2200    1.1017 S   0  0  0  0  0  0  0  0  0  0  0  0
    0.6819   -3.1311   -1.7198 O   0  0  0  0  0  0  0  0  0  0  0  0
   -3.0095   -0.8749   -1.2490 O   0  0  0  0  0  0  0  0  0  0  0  0
   -2.6772   -2.2177    0.6020 O   0  0  0  0  0  0  0  0  0  0  0  0
    4.3428   -1.4205    1.7098 O   0  0  0  0  0  0  0  0  0  0  0  0
   -5.2606   -0.6147   -0.4490 O   0  0  0  0  0  0  0  0  0  0  0  0
   -4.6676    1.4058   -1.3769 O   0  0  0  0  0  0  0  0  0  0  0  0
   -0.0020   -1.9135    0.1828 N   0  0  0  0  0  0  0  0  0  0  0  0
    3.1416   -1.7025   -0.2534 N   0  0  0  0  0  0  0  0  0  0  0  0
    6.5939   -0.8154    0.2273 N   0  0  0  0  0  0  0  0  0  0  0  0
    1.0184   -1.6030    1.1885 C   0  0  1  0  0  0  0  0  0  0  0  0
   -0.6454    0.3683    0.6367 C   0  0  0  0  0  0  0  0  0  0  0  0
   -0.8913   -0.8608   -0.2647 C   0  0  2  0  0  0  0  0  0  0  0  0
    2.0091   -2.4101    0.3383 C   0  0  1  0  0  0  0  0  0  0  0  0
    0.8261   -2.6395   -0.6234 C   0  0  0  0  0  0  0  0  0  0  0  0
   -0.8541    1.6744   -0.1320 C   0  0  0  0  0  0  0  0  0  0  0  0
   -1.4685    0.3832    1.9319 C   0  0  0  0  0  0  0  0  0  0  0  0
   -2.2810   -1.4120   -0.2292 C   0  0  0  0  0  0  0  0  0  0  0  0
    4.2342   -1.2585    0.4953 C   0  0  0  0  0  0  0  0  0  0  0  0
    5.2756   -0.5284   -0.3456 C   0  0  1  0  0  0  0  0  0  0  0  0
   -4.3770   -1.3056   -1.3472 C   0  0  0  0  0  0  0  0  0  0  0  0
    4.9811    0.9564   -0.4005 C   0  0  0  0  0  0  0  0  0  0  0  0
   -6.2810    1.3373    0.4569 C   0  0  0  0  0  0  0  0  0  0  0  0
    4.1684    1.4692   -1.4115 C   0  0  0  0  0  0  0  0  0  0  0  0
    5.5221    1.8108    0.5603 C   0  0  0  0  0  0  0  0  0  0  0  0
   -5.3112    0.7453   -0.5704 C   0  0  0  0  0  0  0  0  0  0  0  0
   -7.6922    0.7877    0.2105 C   0  0  0  0  0  0  0  0  0  0  0  0
   -5.8047    0.9767    1.8706 C   0  0  0  0  0  0  0  0  0  0  0  0
   -6.3092    2.8674    0.3138 C   0  0  0  0  0  0  0  0  0  0  0  0
    3.8969    2.8365   -1.4621 C   0  0  0  0  0  0  0  0  0  0  0  0
    5.2504    3.1781    0.5098 C   0  0  0  0  0  0  0  0  0  0  0  0
    4.4378    3.6909   -0.5014 C   0  0  0  0  0  0  0  0  0  0  0  0
    0.7837   -2.0167    2.1734 H   0  0  0  0  0  0  0  0  0  0  0  0
   -0.6226   -0.6487   -1.3089 H   0  0  0  0  0  0  0  0  0  0  0  0
    2.3324   -3.3454    0.8121 H   0  0  0  0  0  0  0  0  0  0  0  0
   -0.6093    2.5485    0.4825 H   0  0  0  0  0  0  0  0  0  0  0  0
   -0.2383    1.7180   -1.0378 H   0  0  0  0  0  0  0  0  0  0  0  0
   -1.8997    1.7768   -0.4432 H   0  0  0  0  0  0  0  0  0  0  0  0
   -1.1817    1.2203    2.5796 H   0  0  0  0  0  0  0  0  0  0  0  0
   -2.5350    0.5032    1.7137 H   0  0  0  0  0  0  0  0  0  0  0  0
   -1.3545   -0.5405    2.5099 H   0  0  0  0  0  0  0  0  0  0  0  0
    3.1457   -1.5136   -1.2530 H   0  0  0  0  0  0  0  0  0  0  0  0
    5.2730   -0.9359   -1.3643 H   0  0  0  0  0  0  0  0  0  0  0  0
   -4.4589   -2.3811   -1.1538 H   0  0  0  0  0  0  0  0  0  0  0  0
   -4.7135   -1.1386   -2.3766 H   0  0  0  0  0  0  0  0  0  0  0  0
    6.7630   -1.8208    0.2040 H   0  0  0  0  0  0  0  0  0  0  0  0
    7.3171   -0.3990   -0.3591 H   0  0  0  0  0  0  0  0  0  0  0  0
    3.7397    0.8146   -2.1655 H   0  0  0  0  0  0  0  0  0  0  0  0
    6.1444    1.4418    1.3707 H   0  0  0  0  0  0  0  0  0  0  0  0
   -8.0200    0.9910   -0.8156 H   0  0  0  0  0  0  0  0  0  0  0  0
   -7.7333   -0.2977    0.3548 H   0  0  0  0  0  0  0  0  0  0  0  0
   -8.4194    1.2398    0.8942 H   0  0  0  0  0  0  0  0  0  0  0  0
   -6.4591    1.4157    2.6320 H   0  0  0  0  0  0  0  0  0  0  0  0
   -5.7921   -0.1071    2.0315 H   0  0  0  0  0  0  0  0  0  0  0  0
   -4.7885    1.3448    2.0490 H   0  0  0  0  0  0  0  0  0  0  0  0
   -6.9920    3.3225    1.0400 H   0  0  0  0  0  0  0  0  0  0  0  0
   -6.6383    3.1667   -0.6881 H   0  0  0  0  0  0  0  0  0  0  0  0
   -5.3145    3.2998    0.4736 H   0  0  0  0  0  0  0  0  0  0  0  0
    3.2632    3.2356   -2.2486 H   0  0  0  0  0  0  0  0  0  0  0  0
    5.6679    3.8432    1.2601 H   0  0  0  0  0  0  0  0  0  0  0  0
    4.2250    4.7552   -0.5398 H   0  0  0  0  0  0  0  0  0  0  0  0
  1 11  1  0  0  0  0
  1 12  1  0  0  0  0
  2 15  2  0  0  0  0
  3 18  1  0  0  0  0
  3 21  1  0  0  0  0
  4 18  2  0  0  0  0
  5 19  2  0  0  0  0
  6 21  1  0  0  0  0
  6 26  1  0  0  0  0
  7 26  2  0  0  0  0
  8 11  1  0  0  0  0
  8 13  1  0  0  0  0
  8 15  1  0  0  0  0
  9 14  1  0  0  0  0
  9 19  1  0  0  0  0
  9 42  1  0  0  0  0
 10 20  1  0  0  0  0
 10 46  1  0  0  0  0
 10 47  1  0  0  0  0
 11 14  1  0  0  0  0
 11 33  1  0  0  0  0
 12 13  1  0  0  0  0
 12 16  1  0  0  0  0
 12 17  1  0  0  0  0
 13 18  1  0  0  0  0
 13 34  1  0  0  0  0
 14 15  1  0  0  0  0
 14 35  1  0  0  0  0
 16 36  1  0  0  0  0
 16 37  1  0  0  0  0
 16 38  1  0  0  0  0
 17 39  1  0  0  0  0
 17 40  1  0  0  0  0
 17 41  1  0  0  0  0
 19 20  1  0  0  0  0
 20 22  1  0  0  0  0
 20 43  1  0  0  0  0
 21 44  1  0  0  0  0
 21 45  1  0  0  0  0
 22 24  2  0  0  0  0
 22 25  1  0  0  0  0
 23 26  1  0  0  0  0
 23 27  1  0  0  0  0
 23 28  1  0  0  0  0
 23 29  1  0  0  0  0
 24 30  1  0  0  0  0
 24 48  1  0  0  0  0
 25 31  2  0  0  0  0
 25 49  1  0  0  0  0
 27 50  1  0  0  0  0
 27 51  1  0  0  0  0
 27 52  1  0  0  0  0
 28 53  1  0  0  0  0
 28 54  1  0  0  0  0
 28 55  1  0  0  0  0
 29 56  1  0  0  0  0
 29 57  1  0  0  0  0
 29 58  1  0  0  0  0
 30 32  2  0  0  0  0
 30 59  1  0  0  0  0
 31 32  1  0  0  0  0
 31 60  1  0  0  0  0
 32 61  1  0  0  0  0
M  END
> <DATABASE_ID>
DB01604

> <DATABASE_NAME>
drugbank

> <ORIGINAL_SOURCE>
PUBCHEM

> <ORIGINAL_SOURCE_URL>
https://pubchem.ncbi.nlm.nih.gov/rest/pug/compound/inchikey/ZEMIJUDPLILVNQ-ZXFNITATSA-N/SDF?record_type=3d

> <SMILES>
[H][C@]12SC(C)(C)[C@@H](N1C(=O)[C@H]2NC(=O)[C@H](N)C1=CC=CC=C1)C(=O)OCOC(=O)C(C)(C)C

> <INCHI_IDENTIFIER>
InChI=1S/C22H29N3O6S/c1-21(2,3)20(29)31-11-30-19(28)15-22(4,5)32-18-14(17(27)25(15)18)24-16(26)13(23)12-9-7-6-8-10-12/h6-10,13-15,18H,11,23H2,1-5H3,(H,24,26)/t13-,14-,15+,18-/m1/s1

> <INCHI_KEY>
ZEMIJUDPLILVNQ-ZXFNITATSA-N

> <FORMULA>
C22H29N3O6S

> <MOLECULAR_WEIGHT>
463.547

> <EXACT_MASS>
463.177706365

> <JCHEM_ACCEPTOR_COUNT>
5

> <JCHEM_AVERAGE_POLARIZABILITY>
47.53968324049653

> <JCHEM_BIOAVAILABILITY>
1

> <JCHEM_DONOR_COUNT>
2

> <JCHEM_FORMAL_CHARGE>
0

> <JCHEM_GHOSE_FILTER>
1

> <JCHEM_IUPAC>
[(2S,5R,6R)-6-[(2R)-2-amino-2-phenylacetamido]-3,3-dimethyl-7-oxo-4-thia-1-azabicyclo[3.2.0]heptane-2-carbonyloxy]methyl 2,2-dimethylpropanoate

> <ALOGPS_LOGP>
1.43

> <JCHEM_LOGP>
2.065192519666666

> <ALOGPS_LOGS>
-4.12

> <JCHEM_MDDR_LIKE_RULE>
1

> <JCHEM_NUMBER_OF_RINGS>
3

> <JCHEM_PHYSIOLOGICAL_CHARGE>
1

> <JCHEM_PKA>
14.348867428920723

> <JCHEM_PKA_STRONGEST_ACIDIC>
11.707929021475366

> <JCHEM_PKA_STRONGEST_BASIC>
7.438306945693415

> <JCHEM_POLAR_SURFACE_AREA>
128.03

> <JCHEM_REFRACTIVITY>
116.24830000000001

> <JCHEM_ROTATABLE_BOND_COUNT>
9

> <JCHEM_RULE_OF_FIVE>
1

> <ALOGPS_SOLUBILITY>
3.54e-02 g/l

> <JCHEM_TRADITIONAL_IUPAC>
pivampicillin

> <JCHEM_VEBER_RULE>
0

$$$$
115163
  -OEChem-10051719383D

 63 65  0     1  0  0  0  0  0999 V2000
    1.1389    1.1139    0.4864 S   0  0  0  0  0  0  0  0  0  0  0  0
    0.8700   -3.1158   -0.7175 O   0  0  0  0  0  0  0  0  0  0  0  0
   -2.9223   -1.0411   -1.2184 O   0  0  0  0  0  0  0  0  0  0  0  0
   -2.5729   -1.4925    1.0205 O   0  0  0  0  0  0  0  0  0  0  0  0
   -5.0927   -0.8052   -0.2139 O   0  0  0  0  0  0  0  0  0  0  0  0
   -5.3573    0.8841   -1.7537 O   0  0  0  0  0  0  0  0  0  0  0  0
    0.0954   -1.2606    0.5188 N   0  0  0  0  0  0  0  0  0  0  0  0
    3.1652   -1.0619   -0.0066 N   0  0  0  0  0  0  0  0  0  0  0  0
    5.4665   -0.4520    0.0165 N   0  0  0  0  0  0  0  0  0  0  0  0
    1.0803   -0.5185    1.3113 C   0  0  1  0  0  0  0  0  0  0  0  0
   -0.6531    0.9743   -0.0022 C   0  0  0  0  0  0  0  0  0  0  0  0
   -0.8280   -0.5259   -0.3221 C   0  0  2  0  0  0  0  0  0  0  0  0
    2.1219   -1.5550    0.8679 C   0  0  1  0  0  0  0  0  0  0  0  0
    0.9702   -2.2128    0.0820 C   0  0  0  0  0  0  0  0  0  0  0  0
   -0.9006    1.8407   -1.2385 C   0  0  0  0  0  0  0  0  0  0  0  0
   -1.5032    1.4785    1.1720 C   0  0  0  0  0  0  0  0  0  0  0  0
   -2.1936   -1.0792   -0.0669 C   0  0  0  0  0  0  0  0  0  0  0  0
    4.3128   -0.8974    0.5753 C   0  0  0  0  0  0  0  0  0  0  0  0
    5.5231   -0.1414   -1.4106 C   0  0  0  0  0  0  0  0  0  0  0  0
    6.6798   -0.3234    0.8186 C   0  0  0  0  0  0  0  0  0  0  0  0
    6.5103    0.9622   -1.7865 C   0  0  0  0  0  0  0  0  0  0  0  0
    6.7913    1.0925    1.3777 C   0  0  0  0  0  0  0  0  0  0  0  0
    6.4133    2.2150   -0.9158 C   0  0  0  0  0  0  0  0  0  0  0  0
    7.2579    2.1284    0.3561 C   0  0  0  0  0  0  0  0  0  0  0  0
   -4.2682   -1.5382   -1.1346 C   0  0  0  0  0  0  0  0  0  0  0  0
   -6.4204    1.0610    0.4392 C   0  0  0  0  0  0  0  0  0  0  0  0
   -5.5746    0.3962   -0.6512 C   0  0  0  0  0  0  0  0  0  0  0  0
   -6.9375    2.4169   -0.0676 C   0  0  0  0  0  0  0  0  0  0  0  0
   -5.5531    1.2912    1.6843 C   0  0  0  0  0  0  0  0  0  0  0  0
   -7.6195    0.1660    0.7795 C   0  0  0  0  0  0  0  0  0  0  0  0
    0.8426   -0.5044    2.3788 H   0  0  0  0  0  0  0  0  0  0  0  0
   -0.5466   -0.7469   -1.3611 H   0  0  0  0  0  0  0  0  0  0  0  0
    2.4700   -2.2128    1.6755 H   0  0  0  0  0  0  0  0  0  0  0  0
   -0.7078    2.9004   -1.0347 H   0  0  0  0  0  0  0  0  0  0  0  0
   -0.2674    1.5403   -2.0814 H   0  0  0  0  0  0  0  0  0  0  0  0
   -1.9428    1.7555   -1.5672 H   0  0  0  0  0  0  0  0  0  0  0  0
   -1.2628    2.5179    1.4250 H   0  0  0  0  0  0  0  0  0  0  0  0
   -2.5656    1.4530    0.9130 H   0  0  0  0  0  0  0  0  0  0  0  0
   -1.3695    0.8741    2.0759 H   0  0  0  0  0  0  0  0  0  0  0  0
    4.4213   -1.1145    1.6533 H   0  0  0  0  0  0  0  0  0  0  0  0
    4.5328    0.1746   -1.7623 H   0  0  0  0  0  0  0  0  0  0  0  0
    5.7742   -1.0541   -1.9640 H   0  0  0  0  0  0  0  0  0  0  0  0
    6.6473   -1.0333    1.6547 H   0  0  0  0  0  0  0  0  0  0  0  0
    7.5697   -0.5941    0.2386 H   0  0  0  0  0  0  0  0  0  0  0  0
    7.5364    0.5752   -1.7794 H   0  0  0  0  0  0  0  0  0  0  0  0
    6.3072    1.2440   -2.8277 H   0  0  0  0  0  0  0  0  0  0  0  0
    5.8312    1.4089    1.8042 H   0  0  0  0  0  0  0  0  0  0  0  0
    7.5136    1.0863    2.2033 H   0  0  0  0  0  0  0  0  0  0  0  0
    6.7887    3.0640   -1.5009 H   0  0  0  0  0  0  0  0  0  0  0  0
    5.3688    2.4412   -0.6712 H   0  0  0  0  0  0  0  0  0  0  0  0
    7.2578    3.1123    0.8416 H   0  0  0  0  0  0  0  0  0  0  0  0
    8.3009    1.9221    0.0848 H   0  0  0  0  0  0  0  0  0  0  0  0
   -4.7068   -1.5211   -2.1387 H   0  0  0  0  0  0  0  0  0  0  0  0
   -4.2454   -2.5855   -0.8128 H   0  0  0  0  0  0  0  0  0  0  0  0
   -7.5413    2.9221    0.6945 H   0  0  0  0  0  0  0  0  0  0  0  0
   -7.5601    2.2954   -0.9617 H   0  0  0  0  0  0  0  0  0  0  0  0
   -6.1095    3.0840   -0.3346 H   0  0  0  0  0  0  0  0  0  0  0  0
   -4.7134    1.9562    1.4588 H   0  0  0  0  0  0  0  0  0  0  0  0
   -5.1380    0.3552    2.0740 H   0  0  0  0  0  0  0  0  0  0  0  0
   -6.1353    1.7544    2.4889 H   0  0  0  0  0  0  0  0  0  0  0  0
   -7.2991   -0.7939    1.2001 H   0  0  0  0  0  0  0  0  0  0  0  0
   -8.2129   -0.0538   -0.1154 H   0  0  0  0  0  0  0  0  0  0  0  0
   -8.2774    0.6450    1.5130 H   0  0  0  0  0  0  0  0  0  0  0  0
  1 10  1  0  0  0  0
  1 11  1  0  0  0  0
  2 14  2  0  0  0  0
  3 17  1  0  0  0  0
  3 25  1  0  0  0  0
  4 17  2  0  0  0  0
  5 25  1  0  0  0  0
  5 27  1  0  0  0  0
  6 27  2  0  0  0  0
  7 10  1  0  0  0  0
  7 12  1  0  0  0  0
  7 14  1  0  0  0  0
  8 13  1  0  0  0  0
  8 18  2  0  0  0  0
  9 18  1  0  0  0  0
  9 19  1  0  0  0  0
  9 20  1  0  0  0  0
 10 13  1  0  0  0  0
 10 31  1  0  0  0  0
 11 12  1  0  0  0  0
 11 15  1  0  0  0  0
 11 16  1  0  0  0  0
 12 17  1  0  0  0  0
 12 32  1  0  0  0  0
 13 14  1  0  0  0  0
 13 33  1  0  0  0  0
 15 34  1  0  0  0  0
 15 35  1  0  0  0  0
 15 36  1  0  0  0  0
 16 37  1  0  0  0  0
 16 38  1  0  0  0  0
 16 39  1  0  0  0  0
 18 40  1  0  0  0  0
 19 21  1  0  0  0  0
 19 41  1  0  0  0  0
 19 42  1  0  0  0  0
 20 22  1  0  0  0  0
 20 43  1  0  0  0  0
 20 44  1  0  0  0  0
 21 23  1  0  0  0  0
 21 45  1  0  0  0  0
 21 46  1  0  0  0  0
 22 24  1  0  0  0  0
 22 47  1  0  0  0  0
 22 48  1  0  0  0  0
 23 24  1  0  0  0  0
 23 49  1  0  0  0  0
 23 50  1  0  0  0  0
 24 51  1  0  0  0  0
 24 52  1  0  0  0  0
 25 53  1  0  0  0  0
 25 54  1  0  0  0  0
 26 27  1  0  0  0  0
 26 28  1  0  0  0  0
 26 29  1  0  0  0  0
 26 30  1  0  0  0  0
 28 55  1  0  0  0  0
 28 56  1  0  0  0  0
 28 57  1  0  0  0  0
 29 58  1  0  0  0  0
 29 59  1  0  0  0  0
 29 60  1  0  0  0  0
 30 61  1  0  0  0  0
 30 62  1  0  0  0  0
 30 63  1  0  0  0  0
M  END
> <DATABASE_ID>
DB01605

> <DATABASE_NAME>
drugbank

> <ORIGINAL_SOURCE>
PUBCHEM

> <ORIGINAL_SOURCE_URL>
https://pubchem.ncbi.nlm.nih.gov/rest/pug/compound/inchikey/NPGNOVNWUSPMDP-HLLBOEOZSA-N/SDF?record_type=3d

> <SMILES>
[H]C(=N[C@@H]1C(=O)N2[C@@H](C(=O)OCOC(=O)C(C)(C)C)C(C)(C)S[C@]12[H])N1CCCCCC1

> <INCHI_IDENTIFIER>
InChI=1S/C21H33N3O5S/c1-20(2,3)19(27)29-13-28-18(26)15-21(4,5)30-17-14(16(25)24(15)17)22-12-23-10-8-6-7-9-11-23/h12,14-15,17H,6-11,13H2,1-5H3/t14-,15+,17-/m1/s1

> <INCHI_KEY>
NPGNOVNWUSPMDP-HLLBOEOZSA-N

> <FORMULA>
C21H33N3O5S

> <MOLECULAR_WEIGHT>
439.569

> <EXACT_MASS>
439.214091871

> <JCHEM_ACCEPTOR_COUNT>
5

> <JCHEM_AVERAGE_POLARIZABILITY>
47.70248610180789

> <JCHEM_BIOAVAILABILITY>
1

> <JCHEM_DONOR_COUNT>
0

> <JCHEM_FORMAL_CHARGE>
0

> <JCHEM_GHOSE_FILTER>
1

> <JCHEM_IUPAC>
[(2S,5R,6R)-6-[(azepan-1-ylmethylidene)amino]-3,3-dimethyl-7-oxo-4-thia-1-azabicyclo[3.2.0]heptane-2-carbonyloxy]methyl 2,2-dimethylpropanoate

> <ALOGPS_LOGP>
3.23

> <JCHEM_LOGP>
2.9085426906666667

> <ALOGPS_LOGS>
-3.92

> <JCHEM_MDDR_LIKE_RULE>
1

> <JCHEM_NUMBER_OF_RINGS>
3

> <JCHEM_PHYSIOLOGICAL_CHARGE>
1

> <JCHEM_PKA_STRONGEST_ACIDIC>
13.660257128507617

> <JCHEM_PKA_STRONGEST_BASIC>
7.914073683805415

> <JCHEM_POLAR_SURFACE_AREA>
88.50999999999999

> <JCHEM_REFRACTIVITY>
113.0317

> <JCHEM_ROTATABLE_BOND_COUNT>
7

> <JCHEM_RULE_OF_FIVE>
1

> <ALOGPS_SOLUBILITY>
5.26e-02 g/l

> <JCHEM_TRADITIONAL_IUPAC>
pivmecilinamo

> <JCHEM_VEBER_RULE>
0

$$$$
36921
  -OEChem-10051719383D

 41 43  0     1  0  0  0  0  0999 V2000
    1.0628   -0.6982    1.0501 S   0  0  0  0  0  0  0  0  0  0  0  0
   -2.6601   -3.3371   -0.8893 S   0  0  0  0  0  0  0  0  0  0  0  0
    2.0325    2.1271   -2.1596 O   0  0  0  0  0  0  0  0  0  0  0  0
    5.5672   -0.6606    0.0024 O   0  0  0  0  0  0  0  0  0  0  0  0
    4.4427    0.4102    1.6712 O   0  0  0  0  0  0  0  0  0  0  0  0
   -1.7230    1.5647    1.5369 O   0  0  0  0  0  0  0  0  0  0  0  0
   -4.3303    2.4972   -0.1104 O   0  0  0  0  0  0  0  0  0  0  0  0
   -5.1571    0.4895    0.5519 O   0  0  0  0  0  0  0  0  0  0  0  0
    2.5876    1.0918   -0.1138 N   0  0  0  0  0  0  0  0  0  0  0  0
   -0.5725    1.3850   -0.4701 N   0  0  0  0  0  0  0  0  0  0  0  0
    1.5601    1.0615    0.9281 C   0  0  1  0  0  0  0  0  0  0  0  0
    2.3218   -1.2860   -0.1883 C   0  0  0  0  0  0  0  0  0  0  0  0
    3.3163   -0.1225   -0.4001 C   0  0  2  0  0  0  0  0  0  0  0  0
    0.6989    1.9436    0.0092 C   0  0  1  0  0  0  0  0  0  0  0  0
    1.8564    1.8249   -1.0014 C   0  0  0  0  0  0  0  0  0  0  0  0
    2.9736   -2.5717    0.3311 C   0  0  0  0  0  0  0  0  0  0  0  0
    1.5697   -1.6013   -1.4923 C   0  0  0  0  0  0  0  0  0  0  0  0
    4.4727   -0.0801    0.5522 C   0  0  0  0  0  0  0  0  0  0  0  0
   -1.6926    1.2418    0.3506 C   0  0  0  0  0  0  0  0  0  0  0  0
   -2.8931    0.6272   -0.3671 C   0  0  1  0  0  0  0  0  0  0  0  0
   -2.8249   -0.8795   -0.2673 C   0  0  0  0  0  0  0  0  0  0  0  0
   -4.2375    1.1584    0.1015 C   0  0  0  0  0  0  0  0  0  0  0  0
   -2.8696   -1.5671    0.9608 C   0  0  0  0  0  0  0  0  0  0  0  0
   -2.7130   -1.6901   -1.3548 C   0  0  0  0  0  0  0  0  0  0  0  0
   -2.7884   -2.9287    0.7687 C   0  0  0  0  0  0  0  0  0  0  0  0
    1.8771    1.5267    1.8655 H   0  0  0  0  0  0  0  0  0  0  0  0
    3.6847   -0.0743   -1.4317 H   0  0  0  0  0  0  0  0  0  0  0  0
    0.5722    2.9718    0.3690 H   0  0  0  0  0  0  0  0  0  0  0  0
    2.2405   -3.3811    0.4312 H   0  0  0  0  0  0  0  0  0  0  0  0
    3.7475   -2.9206   -0.3622 H   0  0  0  0  0  0  0  0  0  0  0  0
    3.4426   -2.4346    1.3118 H   0  0  0  0  0  0  0  0  0  0  0  0
    2.2687   -1.9487   -2.2623 H   0  0  0  0  0  0  0  0  0  0  0  0
    0.8274   -2.3954   -1.3487 H   0  0  0  0  0  0  0  0  0  0  0  0
    1.0489   -0.7297   -1.9011 H   0  0  0  0  0  0  0  0  0  0  0  0
   -0.6512    1.0804   -1.4375 H   0  0  0  0  0  0  0  0  0  0  0  0
   -2.8349    0.9017   -1.4310 H   0  0  0  0  0  0  0  0  0  0  0  0
    6.3360   -0.6433    0.6115 H   0  0  0  0  0  0  0  0  0  0  0  0
   -2.9558   -1.1138    1.9400 H   0  0  0  0  0  0  0  0  0  0  0  0
   -2.6572   -1.4176   -2.3995 H   0  0  0  0  0  0  0  0  0  0  0  0
   -2.7977   -3.7030    1.5228 H   0  0  0  0  0  0  0  0  0  0  0  0
   -5.2053    2.8499    0.1584 H   0  0  0  0  0  0  0  0  0  0  0  0
  1 11  1  0  0  0  0
  1 12  1  0  0  0  0
  2 24  1  0  0  0  0
  2 25  1  0  0  0  0
  3 15  2  0  0  0  0
  4 18  1  0  0  0  0
  4 37  1  0  0  0  0
  5 18  2  0  0  0  0
  6 19  2  0  0  0  0
  7 22  1  0  0  0  0
  7 41  1  0  0  0  0
  8 22  2  0  0  0  0
  9 11  1  0  0  0  0
  9 13  1  0  0  0  0
  9 15  1  0  0  0  0
 10 14  1  0  0  0  0
 10 19  1  0  0  0  0
 10 35  1  0  0  0  0
 11 14  1  0  0  0  0
 11 26  1  0  0  0  0
 12 13  1  0  0  0  0
 12 16  1  0  0  0  0
 12 17  1  0  0  0  0
 13 18  1  0  0  0  0
 13 27  1  0  0  0  0
 14 15  1  0  0  0  0
 14 28  1  0  0  0  0
 16 29  1  0  0  0  0
 16 30  1  0  0  0  0
 16 31  1  0  0  0  0
 17 32  1  0  0  0  0
 17 33  1  0  0  0  0
 17 34  1  0  0  0  0
 19 20  1  0  0  0  0
 20 21  1  0  0  0  0
 20 22  1  0  0  0  0
 20 36  1  0  0  0  0
 21 23  1  0  0  0  0
 21 24  2  0  0  0  0
 23 25  2  0  0  0  0
 23 38  1  0  0  0  0
 24 39  1  0  0  0  0
 25 40  1  0  0  0  0
M  END
> <DATABASE_ID>
DB01607

> <DATABASE_NAME>
drugbank

> <ORIGINAL_SOURCE>
PUBCHEM

> <ORIGINAL_SOURCE_URL>
https://pubchem.ncbi.nlm.nih.gov/rest/pug/compound/inchikey/OHKOGUYZJXTSFX-KZFFXBSXSA-N/SDF?record_type=3d

> <SMILES>
[H][C@]12SC(C)(C)[C@@H](N1C(=O)[C@H]2NC(=O)[C@H](C(O)=O)C1=CSC=C1)C(O)=O

> <INCHI_IDENTIFIER>
InChI=1S/C15H16N2O6S2/c1-15(2)9(14(22)23)17-11(19)8(12(17)25-15)16-10(18)7(13(20)21)6-3-4-24-5-6/h3-5,7-9,12H,1-2H3,(H,16,18)(H,20,21)(H,22,23)/t7-,8-,9+,12-/m1/s1

> <INCHI_KEY>
OHKOGUYZJXTSFX-KZFFXBSXSA-N

> <FORMULA>
C15H16N2O6S2

> <MOLECULAR_WEIGHT>
384.427

> <EXACT_MASS>
384.044977634

> <JCHEM_ACCEPTOR_COUNT>
6

> <JCHEM_AVERAGE_POLARIZABILITY>
36.14269831493392

> <JCHEM_BIOAVAILABILITY>
1

> <JCHEM_DONOR_COUNT>
3

> <JCHEM_FORMAL_CHARGE>
0

> <JCHEM_GHOSE_FILTER>
1

> <JCHEM_IUPAC>
(2S,5R,6R)-6-[(2R)-2-carboxy-2-(thiophen-3-yl)acetamido]-3,3-dimethyl-7-oxo-4-thia-1-azabicyclo[3.2.0]heptane-2-carboxylic acid

> <ALOGPS_LOGP>
0.99

> <JCHEM_LOGP>
0.5957987833333339

> <ALOGPS_LOGS>
-3.73

> <JCHEM_MDDR_LIKE_RULE>
0

> <JCHEM_NUMBER_OF_RINGS>
3

> <JCHEM_PHYSIOLOGICAL_CHARGE>
-2

> <JCHEM_PKA>
4.122551213409252

> <JCHEM_PKA_STRONGEST_ACIDIC>
3.0920584971992358

> <JCHEM_PKA_STRONGEST_BASIC>
-6.31815645554628

> <JCHEM_POLAR_SURFACE_AREA>
124.01

> <JCHEM_REFRACTIVITY>
87.92530000000001

> <JCHEM_ROTATABLE_BOND_COUNT>
5

> <JCHEM_RULE_OF_FIVE>
1

> <ALOGPS_SOLUBILITY>
7.16e-02 g/l

> <JCHEM_TRADITIONAL_IUPAC>
ticarcillin

> <JCHEM_VEBER_RULE>
0

$$$$
3000226
  -OEChem-02062017413D

 85 88  0     1  0  0  0  0  0999 V2000
   -1.2813    1.9280   -1.3486 O   0  0  0  0  0  0  0  0  0  0  0  0
    2.5983   -3.0258    0.2260 O   0  0  0  0  0  0  0  0  0  0  0  0
   -6.2671    1.4292   -1.7484 O   0  0  0  0  0  0  0  0  0  0  0  0
    5.0934   -0.9052   -1.5051 O   0  0  0  0  0  0  0  0  0  0  0  0
    5.0105   -1.4881    0.6869 O   0  0  0  0  0  0  0  0  0  0  0  0
    1.8775   -4.9816   -0.7702 O   0  0  0  0  0  0  0  0  0  0  0  0
   -1.7251   -0.9013   -0.1012 C   0  0  1  0  0  0  0  0  0  0  0  0
   -2.0082    0.5248    0.5269 C   0  0  2  0  0  0  0  0  0  0  0  0
   -0.1844   -1.2595    0.1400 C   0  0  2  0  0  0  0  0  0  0  0  0
   -3.5590    0.9120    0.6851 C   0  0  2  0  0  0  0  0  0  0  0  0
   -4.5174   -0.1860    0.1094 C   0  0  1  0  0  0  0  0  0  0  0  0
    0.7026   -0.1379   -0.4719 C   0  0  1  0  0  0  0  0  0  0  0  0
   -2.6500   -1.8998    0.6475 C   0  0  0  0  0  0  0  0  0  0  0  0
   -1.0342    1.6265    0.0201 C   0  0  1  0  0  0  0  0  0  0  0  0
   -4.1522   -1.6063    0.5624 C   0  0  0  0  0  0  0  0  0  0  0  0
    0.4488    1.2196    0.1811 C   0  0  0  0  0  0  0  0  0  0  0  0
    0.3663   -2.5016   -0.6167 C   0  0  0  0  0  0  0  0  0  0  0  0
   -3.9357    2.2585    0.0093 C   0  0  0  0  0  0  0  0  0  0  0  0
   -6.0263    0.1565    0.3092 C   0  0  1  0  0  0  0  0  0  0  0  0
   -2.0549   -0.9485   -1.6238 C   0  0  0  0  0  0  0  0  0  0  0  0
    2.0670   -0.7763   -0.4835 C   0  0  0  0  0  0  0  0  0  0  0  0
    1.8893   -2.2601   -0.7359 C   0  0  1  0  0  0  0  0  0  0  0  0
    0.1368   -1.4868    1.6579 C   0  0  0  0  0  0  0  0  0  0  0  0
   -3.7931    1.0713    2.2220 C   0  0  0  0  0  0  0  0  0  0  0  0
   -5.4169    2.6342    0.1504 C   0  0  0  0  0  0  0  0  0  0  0  0
   -6.3547    1.5261   -0.3253 C   0  0  1  0  0  0  0  0  0  0  0  0
   -6.9526   -0.9239   -0.2697 C   0  0  0  0  0  0  0  0  0  0  0  0
    3.2355   -0.1711   -0.2411 C   0  0  0  0  0  0  0  0  0  0  0  0
    3.3158    1.2913    0.1374 C   0  0  0  0  0  0  0  0  0  0  0  0
    4.5171   -0.9281   -0.2815 C   0  0  0  0  0  0  0  0  0  0  0  0
    2.5072   -4.3845    0.0924 C   0  0  0  0  0  0  0  0  0  0  0  0
    4.7410    1.7702    0.4452 C   0  0  0  0  0  0  0  0  0  0  0  0
    3.3013   -5.0587    1.1699 C   0  0  0  0  0  0  0  0  0  0  0  0
    4.7832    3.2029    0.9018 C   0  0  0  0  0  0  0  0  0  0  0  0
    5.0188    4.3020    0.1605 C   0  0  0  0  0  0  0  0  0  0  0  0
    5.0377    5.6636    0.8031 C   0  0  0  0  0  0  0  0  0  0  0  0
    5.2651    4.3144   -1.3217 C   0  0  0  0  0  0  0  0  0  0  0  0
   -1.6849    0.4194    1.5684 H   0  0  0  0  0  0  0  0  0  0  0  0
   -4.3941   -0.1962   -0.9748 H   0  0  0  0  0  0  0  0  0  0  0  0
    0.4742   -0.0063   -1.5370 H   0  0  0  0  0  0  0  0  0  0  0  0
   -2.4037   -1.9013    1.7157 H   0  0  0  0  0  0  0  0  0  0  0  0
   -2.4632   -2.9248    0.3028 H   0  0  0  0  0  0  0  0  0  0  0  0
   -1.1924    2.5461    0.5947 H   0  0  0  0  0  0  0  0  0  0  0  0
   -4.5938   -2.3259   -0.1389 H   0  0  0  0  0  0  0  0  0  0  0  0
   -4.6083   -1.8224    1.5368 H   0  0  0  0  0  0  0  0  0  0  0  0
    0.6894    1.2054    1.2487 H   0  0  0  0  0  0  0  0  0  0  0  0
    1.0153    2.0112   -0.3099 H   0  0  0  0  0  0  0  0  0  0  0  0
   -0.0469   -2.5709   -1.6279 H   0  0  0  0  0  0  0  0  0  0  0  0
    0.0876   -3.4221   -0.0954 H   0  0  0  0  0  0  0  0  0  0  0  0
   -3.6918    2.2187   -1.0576 H   0  0  0  0  0  0  0  0  0  0  0  0
   -3.3472    3.0790    0.4357 H   0  0  0  0  0  0  0  0  0  0  0  0
   -6.2462    0.2114    1.3815 H   0  0  0  0  0  0  0  0  0  0  0  0
   -2.5151   -1.9038   -1.9006 H   0  0  0  0  0  0  0  0  0  0  0  0
   -2.7217   -0.1475   -1.9454 H   0  0  0  0  0  0  0  0  0  0  0  0
   -1.1828   -0.8380   -2.2703 H   0  0  0  0  0  0  0  0  0  0  0  0
    2.2388   -2.5136   -1.7448 H   0  0  0  0  0  0  0  0  0  0  0  0
    1.2098   -1.5688    1.8575 H   0  0  0  0  0  0  0  0  0  0  0  0
   -0.2162   -0.6827    2.3052 H   0  0  0  0  0  0  0  0  0  0  0  0
   -0.3081   -2.4213    2.0169 H   0  0  0  0  0  0  0  0  0  0  0  0
   -3.5730    0.1415    2.7583 H   0  0  0  0  0  0  0  0  0  0  0  0
   -3.1404    1.8524    2.6306 H   0  0  0  0  0  0  0  0  0  0  0  0
   -4.8155    1.3501    2.4848 H   0  0  0  0  0  0  0  0  0  0  0  0
   -5.6444    2.8914    1.1903 H   0  0  0  0  0  0  0  0  0  0  0  0
   -5.5946    3.5411   -0.4411 H   0  0  0  0  0  0  0  0  0  0  0  0
   -7.3885    1.8047   -0.0917 H   0  0  0  0  0  0  0  0  0  0  0  0
   -6.7137   -1.1448   -1.3152 H   0  0  0  0  0  0  0  0  0  0  0  0
   -6.8755   -1.8554    0.2999 H   0  0  0  0  0  0  0  0  0  0  0  0
   -7.9991   -0.6037   -0.2203 H   0  0  0  0  0  0  0  0  0  0  0  0
   -0.6946    2.6607   -1.6017 H   0  0  0  0  0  0  0  0  0  0  0  0
   -5.3418    1.3039   -2.0104 H   0  0  0  0  0  0  0  0  0  0  0  0
    2.9553    1.9005   -0.6979 H   0  0  0  0  0  0  0  0  0  0  0  0
    2.7414    1.4758    1.0479 H   0  0  0  0  0  0  0  0  0  0  0  0
    5.3929    1.6338   -0.4248 H   0  0  0  0  0  0  0  0  0  0  0  0
    5.1815    1.1682    1.2505 H   0  0  0  0  0  0  0  0  0  0  0  0
    2.9043   -4.7817    2.1497 H   0  0  0  0  0  0  0  0  0  0  0  0
    4.3534   -4.7751    1.0862 H   0  0  0  0  0  0  0  0  0  0  0  0
    3.2217   -6.1434    1.0549 H   0  0  0  0  0  0  0  0  0  0  0  0
    5.9424   -1.3963   -1.5204 H   0  0  0  0  0  0  0  0  0  0  0  0
    4.5971    3.3343    1.9671 H   0  0  0  0  0  0  0  0  0  0  0  0
    4.8593    5.6190    1.8827 H   0  0  0  0  0  0  0  0  0  0  0  0
    4.2625    6.3008    0.3648 H   0  0  0  0  0  0  0  0  0  0  0  0
    6.0104    6.1417    0.6475 H   0  0  0  0  0  0  0  0  0  0  0  0
    5.1527    3.3305   -1.7839 H   0  0  0  0  0  0  0  0  0  0  0  0
    6.2787    4.6706   -1.5328 H   0  0  0  0  0  0  0  0  0  0  0  0
    4.5534    4.9838   -1.8165 H   0  0  0  0  0  0  0  0  0  0  0  0
  1 14  1  0  0  0  0
  1 69  1  0  0  0  0
  2 22  1  0  0  0  0
  2 31  1  0  0  0  0
  3 26  1  0  0  0  0
  3 70  1  0  0  0  0
  4 30  1  0  0  0  0
  4 78  1  0  0  0  0
  5 30  2  0  0  0  0
  6 31  2  0  0  0  0
  7  8  1  0  0  0  0
  7  9  1  0  0  0  0
  7 13  1  0  0  0  0
  7 20  1  0  0  0  0
  8 10  1  0  0  0  0
  8 14  1  0  0  0  0
  8 38  1  0  0  0  0
  9 12  1  0  0  0  0
  9 17  1  0  0  0  0
  9 23  1  0  0  0  0
 10 11  1  0  0  0  0
 10 18  1  0  0  0  0
 10 24  1  0  0  0  0
 11 15  1  0  0  0  0
 11 19  1  0  0  0  0
 11 39  1  0  0  0  0
 12 16  1  0  0  0  0
 12 21  1  0  0  0  0
 12 40  1  0  0  0  0
 13 15  1  0  0  0  0
 13 41  1  0  0  0  0
 13 42  1  0  0  0  0
 14 16  1  0  0  0  0
 14 43  1  0  0  0  0
 15 44  1  0  0  0  0
 15 45  1  0  0  0  0
 16 46  1  0  0  0  0
 16 47  1  0  0  0  0
 17 22  1  0  0  0  0
 17 48  1  0  0  0  0
 17 49  1  0  0  0  0
 18 25  1  0  0  0  0
 18 50  1  0  0  0  0
 18 51  1  0  0  0  0
 19 26  1  0  0  0  0
 19 27  1  0  0  0  0
 19 52  1  0  0  0  0
 20 53  1  0  0  0  0
 20 54  1  0  0  0  0
 20 55  1  0  0  0  0
 21 22  1  0  0  0  0
 21 28  2  0  0  0  0
 22 56  1  0  0  0  0
 23 57  1  0  0  0  0
 23 58  1  0  0  0  0
 23 59  1  0  0  0  0
 24 60  1  0  0  0  0
 24 61  1  0  0  0  0
 24 62  1  0  0  0  0
 25 26  1  0  0  0  0
 25 63  1  0  0  0  0
 25 64  1  0  0  0  0
 26 65  1  0  0  0  0
 27 66  1  0  0  0  0
 27 67  1  0  0  0  0
 27 68  1  0  0  0  0
 28 29  1  0  0  0  0
 28 30  1  0  0  0  0
 29 32  1  0  0  0  0
 29 71  1  0  0  0  0
 29 72  1  0  0  0  0
 31 33  1  0  0  0  0
 32 34  1  0  0  0  0
 32 73  1  0  0  0  0
 32 74  1  0  0  0  0
 33 75  1  0  0  0  0
 33 76  1  0  0  0  0
 33 77  1  0  0  0  0
 34 35  2  0  0  0  0
 34 79  1  0  0  0  0
 35 36  1  0  0  0  0
 35 37  1  0  0  0  0
 36 80  1  0  0  0  0
 36 81  1  0  0  0  0
 36 82  1  0  0  0  0
 37 83  1  0  0  0  0
 37 84  1  0  0  0  0
 37 85  1  0  0  0  0
M  END
> <DATABASE_ID>
DB02703

> <DATABASE_NAME>
drugbank

> <ORIGINAL_SOURCE>
PUBCHEM

> <ORIGINAL_SOURCE_URL>
https://pubchem.ncbi.nlm.nih.gov/rest/pug/compound/inchikey/IECPWNUMDGFDKC-MZJAQBGESA-N/SDF?record_type=3d

> <SMILES>
[H][C@@]12C[C@@H](O)[C@@]3([H])[C@@]4(C)CC[C@@H](O)[C@@H](C)[C@]4([H])CC[C@]3(C)[C@@]1(C)C[C@H](OC(C)=O)\C2=C(\CCC=C(C)C)C(O)=O

> <INCHI_IDENTIFIER>
InChI=1S/C31H48O6/c1-17(2)9-8-10-20(28(35)36)26-22-15-24(34)27-29(5)13-12-23(33)18(3)21(29)11-14-30(27,6)31(22,7)16-25(26)37-19(4)32/h9,18,21-25,27,33-34H,8,10-16H2,1-7H3,(H,35,36)/b26-20-/t18-,21-,22-,23+,24+,25-,27-,29-,30-,31-/m0/s1

> <INCHI_KEY>
IECPWNUMDGFDKC-MZJAQBGESA-N

> <FORMULA>
C31H48O6

> <MOLECULAR_WEIGHT>
516.7092

> <EXACT_MASS>
516.345089268

> <JCHEM_ACCEPTOR_COUNT>
5

> <JCHEM_ATOM_COUNT>
85

> <JCHEM_AVERAGE_NEUTRAL_MICROSPECIES_CHARGE>
-0.9971558830783126

> <JCHEM_AVERAGE_POLARIZABILITY>
59.7645621351772

> <JCHEM_BIOAVAILABILITY>
1

> <JCHEM_DONOR_COUNT>
3

> <JCHEM_FORMAL_CHARGE>
0

> <JCHEM_GHOSE_FILTER>
0

> <JCHEM_IUPAC>
2-[(1Z,2S,3aS,3bS,5aS,6S,7R,9aS,9bS,10R,11aR)-2-(acetyloxy)-7,10-dihydroxy-3a,3b,6,9a-tetramethyl-hexadecahydro-1H-cyclopenta[a]phenanthren-1-ylidene]-6-methylhept-5-enoic acid

> <ALOGPS_LOGP>
4.97

> <JCHEM_LOGP>
4.4219138163333325

> <ALOGPS_LOGS>
-5.00

> <JCHEM_MDDR_LIKE_RULE>
1

> <JCHEM_NEUTRAL_CHARGE>
-1

> <JCHEM_NUMBER_OF_RINGS>
4

> <JCHEM_PHYSIOLOGICAL_CHARGE>
-1

> <JCHEM_PKA>
18.892605767976843

> <JCHEM_PKA_STRONGEST_ACIDIC>
4.455184945090332

> <JCHEM_PKA_STRONGEST_BASIC>
-0.20032296332015048

> <JCHEM_POLAR_SURFACE_AREA>
104.06

> <JCHEM_REFRACTIVITY>
144.1233

> <JCHEM_ROTATABLE_BOND_COUNT>
6

> <JCHEM_RULE_OF_FIVE>
0

> <ALOGPS_SOLUBILITY>
5.21e-03 g/l

> <JCHEM_TRADITIONAL_IUPAC>
cefazolin sodium

> <JCHEM_VEBER_RULE>
0

$$$$
124093
  -OEChem-10061700043D

 51 55  0     1  0  0  0  0  0999 V2000
    1.9327    2.2912   -1.0057 F   0  0  0  0  0  0  0  0  0  0  0  0
    0.3869    1.1432   -2.0167 F   0  0  0  0  0  0  0  0  0  0  0  0
    0.2618    1.4481    0.2225 O   0  0  0  0  0  0  0  0  0  0  0  0
   -4.0232   -2.7694   -0.0385 O   0  0  0  0  0  0  0  0  0  0  0  0
   -6.2831   -1.6979   -0.8164 O   0  0  0  0  0  0  0  0  0  0  0  0
   -6.7408    0.2488    0.2933 O   0  0  0  0  0  0  0  0  0  0  0  0
   -2.6057    1.0522    0.0453 N   0  0  0  0  0  0  0  0  0  0  0  0
    6.4869   -0.2645   -1.0860 N   0  0  0  0  0  0  0  0  0  0  0  0
   -2.2248    2.4839    0.0677 C   0  0  0  0  0  0  0  0  0  0  0  0
   -2.8166    3.4140    1.0722 C   0  0  0  0  0  0  0  0  0  0  0  0
   -1.3691    3.0283    1.1612 C   0  0  0  0  0  0  0  0  0  0  0  0
   -1.6677   -0.0175    0.1045 C   0  0  0  0  0  0  0  0  0  0  0  0
   -3.9557    0.7717   -0.0383 C   0  0  0  0  0  0  0  0  0  0  0  0
   -2.1307   -1.3509    0.0770 C   0  0  0  0  0  0  0  0  0  0  0  0
   -0.2819    0.1946    0.1903 C   0  0  0  0  0  0  0  0  0  0  0  0
   -4.4987   -0.4515   -0.0709 C   0  0  0  0  0  0  0  0  0  0  0  0
    0.6079   -0.8818    0.2468 C   0  0  0  0  0  0  0  0  0  0  0  0
   -3.5892   -1.6243   -0.0136 C   0  0  0  0  0  0  0  0  0  0  0  0
    6.2339   -0.0133    0.3541 C   0  0  1  0  0  0  0  0  0  0  0  0
    4.7679   -0.2625    0.5414 C   0  0  0  0  0  0  0  0  0  0  0  0
    4.1581   -0.3635   -0.7093 C   0  0  0  0  0  0  0  0  0  0  0  0
    2.0402   -0.6683    0.3353 C   0  0  0  0  0  0  0  0  0  0  0  0
   -1.2382   -2.4285    0.1337 C   0  0  0  0  0  0  0  0  0  0  0  0
    5.1835   -0.1961   -1.7794 C   0  0  0  0  0  0  0  0  0  0  0  0
    0.1309   -2.1893    0.2186 C   0  0  0  0  0  0  0  0  0  0  0  0
    2.7946   -0.5631   -0.8328 C   0  0  0  0  0  0  0  0  0  0  0  0
    4.0241   -0.3555    1.7054 C   0  0  0  0  0  0  0  0  0  0  0  0
    2.6474   -0.5654    1.5954 C   0  0  0  0  0  0  0  0  0  0  0  0
    7.1259   -0.8894    1.2263 C   0  0  0  0  0  0  0  0  0  0  0  0
   -5.9554   -0.5646   -0.1604 C   0  0  0  0  0  0  0  0  0  0  0  0
    0.5979    2.0413   -1.0233 C   0  0  0  0  0  0  0  0  0  0  0  0
   -2.1226    2.8880   -0.9337 H   0  0  0  0  0  0  0  0  0  0  0  0
   -3.4813    3.0233    1.8329 H   0  0  0  0  0  0  0  0  0  0  0  0
   -3.0507    4.4221    0.7521 H   0  0  0  0  0  0  0  0  0  0  0  0
   -0.6563    3.8144    0.9395 H   0  0  0  0  0  0  0  0  0  0  0  0
   -1.1144    2.4264    2.0268 H   0  0  0  0  0  0  0  0  0  0  0  0
   -4.5793    1.6591   -0.0940 H   0  0  0  0  0  0  0  0  0  0  0  0
    6.4402    1.0438    0.5611 H   0  0  0  0  0  0  0  0  0  0  0  0
   -1.5906   -3.4560    0.1128 H   0  0  0  0  0  0  0  0  0  0  0  0
    5.1114   -0.9860   -2.5335 H   0  0  0  0  0  0  0  0  0  0  0  0
    5.0717    0.7804   -2.2617 H   0  0  0  0  0  0  0  0  0  0  0  0
    0.8118   -3.0363    0.2617 H   0  0  0  0  0  0  0  0  0  0  0  0
    6.8519   -1.2119   -1.1954 H   0  0  0  0  0  0  0  0  0  0  0  0
    2.3393   -0.6378   -1.8154 H   0  0  0  0  0  0  0  0  0  0  0  0
    4.4884   -0.2644    2.6812 H   0  0  0  0  0  0  0  0  0  0  0  0
    2.0542   -0.6419    2.5043 H   0  0  0  0  0  0  0  0  0  0  0  0
    6.9235   -1.9558    1.0722 H   0  0  0  0  0  0  0  0  0  0  0  0
    8.1840   -0.7092    1.0068 H   0  0  0  0  0  0  0  0  0  0  0  0
    6.9674   -0.6753    2.2889 H   0  0  0  0  0  0  0  0  0  0  0  0
    0.0680    2.9722   -1.2293 H   0  0  0  0  0  0  0  0  0  0  0  0
   -7.2544   -1.8096   -0.8966 H   0  0  0  0  0  0  0  0  0  0  0  0
  1 31  1  0  0  0  0
  2 31  1  0  0  0  0
  3 15  1  0  0  0  0
  3 31  1  0  0  0  0
  4 18  2  0  0  0  0
  5 30  1  0  0  0  0
  5 51  1  0  0  0  0
  6 30  2  0  0  0  0
  7  9  1  0  0  0  0
  7 12  1  0  0  0  0
  7 13  1  0  0  0  0
  8 19  1  0  0  0  0
  8 24  1  0  0  0  0
  8 43  1  0  0  0  0
  9 10  1  0  0  0  0
  9 11  1  0  0  0  0
  9 32  1  0  0  0  0
 10 11  1  0  0  0  0
 10 33  1  0  0  0  0
 10 34  1  0  0  0  0
 11 35  1  0  0  0  0
 11 36  1  0  0  0  0
 12 14  2  0  0  0  0
 12 15  1  0  0  0  0
 13 16  2  0  0  0  0
 13 37  1  0  0  0  0
 14 18  1  0  0  0  0
 14 23  1  0  0  0  0
 15 17  2  0  0  0  0
 16 18  1  0  0  0  0
 16 30  1  0  0  0  0
 17 22  1  0  0  0  0
 17 25  1  0  0  0  0
 19 20  1  0  0  0  0
 19 29  1  0  0  0  0
 19 38  1  0  0  0  0
 20 21  2  0  0  0  0
 20 27  1  0  0  0  0
 21 24  1  0  0  0  0
 21 26  1  0  0  0  0
 22 26  2  0  0  0  0
 22 28  1  0  0  0  0
 23 25  2  0  0  0  0
 23 39  1  0  0  0  0
 24 40  1  0  0  0  0
 24 41  1  0  0  0  0
 25 42  1  0  0  0  0
 26 44  1  0  0  0  0
 27 28  2  0  0  0  0
 27 45  1  0  0  0  0
 28 46  1  0  0  0  0
 29 47  1  0  0  0  0
 29 48  1  0  0  0  0
 29 49  1  0  0  0  0
 31 50  1  0  0  0  0
M  END
> <DATABASE_ID>
DB06160

> <DATABASE_NAME>
drugbank

> <ORIGINAL_SOURCE>
PUBCHEM

> <ORIGINAL_SOURCE_URL>
https://pubchem.ncbi.nlm.nih.gov/rest/pug/compound/inchikey/NJDRXTDGYFKORP-LLVKDONJSA-N/SDF?record_type=3d

> <SMILES>
C[C@H]1NCC2=CC(=CC=C12)C1=CC=C2C(=O)C(=CN(C3CC3)C2=C1OC(F)F)C(O)=O

> <INCHI_IDENTIFIER>
InChI=1S/C23H20F2N2O4/c1-11-15-5-2-12(8-13(15)9-26-11)16-6-7-17-19(21(16)31-23(24)25)27(14-3-4-14)10-18(20(17)28)22(29)30/h2,5-8,10-11,14,23,26H,3-4,9H2,1H3,(H,29,30)/t11-/m1/s1

> <INCHI_KEY>
NJDRXTDGYFKORP-LLVKDONJSA-N

> <FORMULA>
C23H20F2N2O4

> <MOLECULAR_WEIGHT>
426.42

> <EXACT_MASS>
426.139113458

> <JCHEM_ACCEPTOR_COUNT>
6

> <JCHEM_ATOM_COUNT>
51

> <JCHEM_AVERAGE_POLARIZABILITY>
42.389143292884185

> <JCHEM_BIOAVAILABILITY>
1

> <JCHEM_DONOR_COUNT>
2

> <JCHEM_FORMAL_CHARGE>
0

> <JCHEM_GHOSE_FILTER>
1

> <JCHEM_IUPAC>
1-cyclopropyl-8-(difluoromethoxy)-7-[(1R)-1-methyl-2,3-dihydro-1H-isoindol-5-yl]-4-oxo-1,4-dihydroquinoline-3-carboxylic acid

> <ALOGPS_LOGP>
1.71

> <JCHEM_LOGP>
1.6222796387144944

> <ALOGPS_LOGS>
-4.26

> <JCHEM_MDDR_LIKE_RULE>
0

> <JCHEM_NUMBER_OF_RINGS>
5

> <JCHEM_PHYSIOLOGICAL_CHARGE>
0

> <JCHEM_PKA_STRONGEST_ACIDIC>
6.0503735569164645

> <JCHEM_PKA_STRONGEST_BASIC>
8.879737479108723

> <JCHEM_POLAR_SURFACE_AREA>
78.87

> <JCHEM_REFRACTIVITY>
110.36869999999999

> <JCHEM_ROTATABLE_BOND_COUNT>
5

> <JCHEM_RULE_OF_FIVE>
1

> <ALOGPS_SOLUBILITY>
2.32e-02 g/l

> <JCHEM_TRADITIONAL_IUPAC>
1-cyclopropyl-8-(difluoromethoxy)-7-[(1R)-1-methyl-2,3-dihydro-1H-isoindol-5-yl]-4-oxoquinoline-3-carboxylic acid

> <JCHEM_VEBER_RULE>
0

$$$$
11993740
  -OEChem-10061700073D

 52 55  0     1  0  0  0  0  0999 V2000
   -0.9962    1.4566   -0.2344 O   0  0  0  0  0  0  0  0  0  0  0  0
    3.3881   -2.6190    0.4030 O   0  0  0  0  0  0  0  0  0  0  0  0
    5.6410   -1.6625   -0.5297 O   0  0  0  0  0  0  0  0  0  0  0  0
    6.0329    0.4734    0.1877 O   0  0  0  0  0  0  0  0  0  0  0  0
    1.8880    1.1092   -0.2837 N   0  0  0  0  0  0  0  0  0  0  0  0
   -2.6732   -0.6352    0.2555 N   0  0  1  0  0  0  0  0  0  0  0  0
   -4.3183    1.8374    0.8164 N   0  0  0  0  0  0  0  0  0  0  0  0
    1.4752    2.5076   -0.5460 C   0  0  0  0  0  0  0  0  0  0  0  0
    2.0251    3.6298    0.2681 C   0  0  0  0  0  0  0  0  0  0  0  0
    0.5849    3.2315    0.4069 C   0  0  0  0  0  0  0  0  0  0  0  0
   -4.8332   -0.6154   -0.9426 C   0  0  1  0  0  0  0  0  0  0  0  0
   -4.5989    0.4947    1.3314 C   0  0  1  0  0  0  0  0  0  0  0  0
   -5.5289   -0.2677    0.3810 C   0  0  0  0  0  0  0  0  0  0  0  0
   -3.5207   -1.3729   -0.6885 C   0  0  0  0  0  0  0  0  0  0  0  0
   -3.2879   -0.2728    1.5419 C   0  0  0  0  0  0  0  0  0  0  0  0
    0.9719    0.0482   -0.0330 C   0  0  0  0  0  0  0  0  0  0  0  0
   -1.2872   -0.8288    0.2362 C   0  0  0  0  0  0  0  0  0  0  0  0
   -0.4195    0.2380   -0.0142 C   0  0  0  0  0  0  0  0  0  0  0  0
    3.2452    0.8517   -0.2879 C   0  0  0  0  0  0  0  0  0  0  0  0
    1.4637   -1.2529    0.2085 C   0  0  0  0  0  0  0  0  0  0  0  0
   -5.7613   -1.4332   -1.8395 C   0  0  0  0  0  0  0  0  0  0  0  0
   -0.7821   -2.1042    0.4725 C   0  0  0  0  0  0  0  0  0  0  0  0
    3.8146   -0.3404   -0.0719 C   0  0  0  0  0  0  0  0  0  0  0  0
    0.5934   -2.3208    0.4595 C   0  0  0  0  0  0  0  0  0  0  0  0
    2.9293   -1.5020    0.1978 C   0  0  0  0  0  0  0  0  0  0  0  0
    5.2750   -0.4321   -0.1123 C   0  0  0  0  0  0  0  0  0  0  0  0
   -1.3206    1.7818   -1.5828 C   0  0  0  0  0  0  0  0  0  0  0  0
    1.3651    2.7066   -1.6070 H   0  0  0  0  0  0  0  0  0  0  0  0
    2.2440    4.5620   -0.2384 H   0  0  0  0  0  0  0  0  0  0  0  0
    2.6821    3.4112    1.1010 H   0  0  0  0  0  0  0  0  0  0  0  0
    0.3249    2.8019    1.3682 H   0  0  0  0  0  0  0  0  0  0  0  0
   -0.1390    3.9419    0.0251 H   0  0  0  0  0  0  0  0  0  0  0  0
   -4.6007    0.3148   -1.4763 H   0  0  0  0  0  0  0  0  0  0  0  0
   -5.1030    0.6108    2.2977 H   0  0  0  0  0  0  0  0  0  0  0  0
   -6.4338    0.3218    0.1858 H   0  0  0  0  0  0  0  0  0  0  0  0
   -5.8602   -1.1907    0.8753 H   0  0  0  0  0  0  0  0  0  0  0  0
   -3.7276   -2.3743   -0.2900 H   0  0  0  0  0  0  0  0  0  0  0  0
   -2.9966   -1.5019   -1.6443 H   0  0  0  0  0  0  0  0  0  0  0  0
   -2.5996    0.3328    2.1466 H   0  0  0  0  0  0  0  0  0  0  0  0
   -3.4849   -1.1894    2.1130 H   0  0  0  0  0  0  0  0  0  0  0  0
    3.8507    1.7268   -0.5050 H   0  0  0  0  0  0  0  0  0  0  0  0
   -5.2779   -1.6571   -2.7963 H   0  0  0  0  0  0  0  0  0  0  0  0
   -6.0359   -2.3831   -1.3685 H   0  0  0  0  0  0  0  0  0  0  0  0
   -6.6830   -0.8808   -2.0505 H   0  0  0  0  0  0  0  0  0  0  0  0
   -1.4452   -2.9415    0.6748 H   0  0  0  0  0  0  0  0  0  0  0  0
    0.9680   -3.3233    0.6474 H   0  0  0  0  0  0  0  0  0  0  0  0
   -3.7674    1.7753   -0.0381 H   0  0  0  0  0  0  0  0  0  0  0  0
   -3.7337    2.3405    1.4833 H   0  0  0  0  0  0  0  0  0  0  0  0
   -2.2464    1.2775   -1.8745 H   0  0  0  0  0  0  0  0  0  0  0  0
   -0.5266    1.4914   -2.2784 H   0  0  0  0  0  0  0  0  0  0  0  0
   -1.4863    2.8597   -1.6590 H   0  0  0  0  0  0  0  0  0  0  0  0
    6.6159   -1.7632   -0.5700 H   0  0  0  0  0  0  0  0  0  0  0  0
  1 18  1  0  0  0  0
  1 27  1  0  0  0  0
  2 25  2  0  0  0  0
  3 26  1  0  0  0  0
  3 52  1  0  0  0  0
  4 26  2  0  0  0  0
  5  8  1  0  0  0  0
  5 16  1  0  0  0  0
  5 19  1  0  0  0  0
  6 14  1  0  0  0  0
  6 15  1  0  0  0  0
  6 17  1  0  0  0  0
  7 12  1  0  0  0  0
  7 47  1  0  0  0  0
  7 48  1  0  0  0  0
  8  9  1  0  0  0  0
  8 10  1  0  0  0  0
  8 28  1  0  0  0  0
  9 10  1  0  0  0  0
  9 29  1  0  0  0  0
  9 30  1  0  0  0  0
 10 31  1  0  0  0  0
 10 32  1  0  0  0  0
 11 13  1  0  0  0  0
 11 14  1  0  0  0  0
 11 21  1  0  0  0  0
 11 33  1  0  0  0  0
 12 13  1  0  0  0  0
 12 15  1  0  0  0  0
 12 34  1  0  0  0  0
 13 35  1  0  0  0  0
 13 36  1  0  0  0  0
 14 37  1  0  0  0  0
 14 38  1  0  0  0  0
 15 39  1  0  0  0  0
 15 40  1  0  0  0  0
 16 18  1  0  0  0  0
 16 20  2  0  0  0  0
 17 18  2  0  0  0  0
 17 22  1  0  0  0  0
 19 23  2  0  0  0  0
 19 41  1  0  0  0  0
 20 24  1  0  0  0  0
 20 25  1  0  0  0  0
 21 42  1  0  0  0  0
 21 43  1  0  0  0  0
 21 44  1  0  0  0  0
 22 24  2  0  0  0  0
 22 45  1  0  0  0  0
 23 25  1  0  0  0  0
 23 26  1  0  0  0  0
 24 46  1  0  0  0  0
 27 49  1  0  0  0  0
 27 50  1  0  0  0  0
 27 51  1  0  0  0  0
M  END
> <DATABASE_ID>
DB06600

> <DATABASE_NAME>
drugbank

> <ORIGINAL_SOURCE>
PUBCHEM

> <ORIGINAL_SOURCE_URL>
https://pubchem.ncbi.nlm.nih.gov/rest/pug/compound/inchikey/AVPQPGFLVZTJOR-RYUDHWBXSA-N/SDF?record_type=3d

> <SMILES>
COC1=C2N(C=C(C(O)=O)C(=O)C2=CC=C1N1C[C@@H](C)C[C@H](N)C1)C1CC1

> <INCHI_IDENTIFIER>
InChI=1S/C20H25N3O4/c1-11-7-12(21)9-22(8-11)16-6-5-14-17(19(16)27-2)23(13-3-4-13)10-15(18(14)24)20(25)26/h5-6,10-13H,3-4,7-9,21H2,1-2H3,(H,25,26)/t11-,12-/m0/s1

> <INCHI_KEY>
AVPQPGFLVZTJOR-RYUDHWBXSA-N

> <FORMULA>
C20H25N3O4

> <MOLECULAR_WEIGHT>
371.437

> <EXACT_MASS>
371.184506297

> <JCHEM_ACCEPTOR_COUNT>
7

> <JCHEM_ATOM_COUNT>
52

> <JCHEM_AVERAGE_POLARIZABILITY>
40.05477893071219

> <JCHEM_BIOAVAILABILITY>
1

> <JCHEM_DONOR_COUNT>
2

> <JCHEM_FORMAL_CHARGE>
0

> <JCHEM_GHOSE_FILTER>
0

> <JCHEM_IUPAC>
7-[(3S,5S)-3-amino-5-methylpiperidin-1-yl]-1-cyclopropyl-8-methoxy-4-oxo-1,4-dihydroquinoline-3-carboxylic acid

> <ALOGPS_LOGP>
0.32

> <JCHEM_LOGP>
-0.441643983859724

> <ALOGPS_LOGS>
-2.91

> <JCHEM_MDDR_LIKE_RULE>
0

> <JCHEM_NUMBER_OF_RINGS>
4

> <JCHEM_PHYSIOLOGICAL_CHARGE>
0

> <JCHEM_PKA_STRONGEST_ACIDIC>
5.726191934196321

> <JCHEM_PKA_STRONGEST_BASIC>
9.658725657122702

> <JCHEM_POLAR_SURFACE_AREA>
96.1

> <JCHEM_REFRACTIVITY>
103.06339999999996

> <JCHEM_ROTATABLE_BOND_COUNT>
4

> <JCHEM_RULE_OF_FIVE>
1

> <ALOGPS_SOLUBILITY>
4.53e-01 g/l

> <JCHEM_TRADITIONAL_IUPAC>
nemonoxacin

> <JCHEM_VEBER_RULE>
0

$$$$
5335
  -OEChem-02111911353D

 36 38  0     0  0  0  0  0  0999 V2000
   -0.2991   -2.1848    0.3841 S   0  0  0  0  0  0  0  0  0  0  0  0
   -0.7039   -3.5281    0.0135 O   0  0  0  0  0  0  0  0  0  0  0  0
    0.2792   -1.9417    1.6917 O   0  0  0  0  0  0  0  0  0  0  0  0
    2.5404    0.0561   -0.1781 N   0  0  0  0  0  0  0  0  0  0  0  0
    0.7244   -1.5721   -0.8441 N   0  0  0  0  0  0  0  0  0  0  0  0
    3.8574    0.0758    0.1164 N   0  0  0  0  0  0  0  0  0  0  0  0
   -5.1073    1.2731   -0.1458 N   0  0  0  0  0  0  0  0  0  0  0  0
    2.0779   -1.1978   -0.4831 C   0  0  0  0  0  0  0  0  0  0  0  0
   -1.7307   -1.1560    0.2267 C   0  0  0  0  0  0  0  0  0  0  0  0
    1.7982    1.2227   -0.1542 C   0  0  0  0  0  0  0  0  0  0  0  0
    3.1575   -2.0408   -0.3809 C   0  0  0  0  0  0  0  0  0  0  0  0
   -2.7515   -1.5475   -0.6205 C   0  0  0  0  0  0  0  0  0  0  0  0
   -1.7988    0.0190    0.9529 C   0  0  0  0  0  0  0  0  0  0  0  0
    4.2252   -1.2021   -0.0089 C   0  0  0  0  0  0  0  0  0  0  0  0
   -3.8791   -0.7360   -0.7456 C   0  0  0  0  0  0  0  0  0  0  0  0
   -2.9266    0.8304    0.8280 C   0  0  0  0  0  0  0  0  0  0  0  0
    0.6989    1.3675   -1.0006 C   0  0  0  0  0  0  0  0  0  0  0  0
    2.1496    2.2552    0.7154 C   0  0  0  0  0  0  0  0  0  0  0  0
   -3.9667    0.4529   -0.0213 C   0  0  0  0  0  0  0  0  0  0  0  0
   -0.0489    2.5448   -0.9772 C   0  0  0  0  0  0  0  0  0  0  0  0
    1.4016    3.4323    0.7389 C   0  0  0  0  0  0  0  0  0  0  0  0
    0.3023    3.5772   -0.1074 C   0  0  0  0  0  0  0  0  0  0  0  0
    0.7146   -2.1407   -1.7022 H   0  0  0  0  0  0  0  0  0  0  0  0
    3.1728   -3.1077   -0.5499 H   0  0  0  0  0  0  0  0  0  0  0  0
   -2.6990   -2.4644   -1.1990 H   0  0  0  0  0  0  0  0  0  0  0  0
   -0.9982    0.3299    1.6169 H   0  0  0  0  0  0  0  0  0  0  0  0
    5.2557   -1.4688    0.1761 H   0  0  0  0  0  0  0  0  0  0  0  0
   -4.6823   -1.0400   -1.4119 H   0  0  0  0  0  0  0  0  0  0  0  0
   -2.9821    1.7550    1.3968 H   0  0  0  0  0  0  0  0  0  0  0  0
    0.4189    0.6274   -1.7422 H   0  0  0  0  0  0  0  0  0  0  0  0
    2.9941    2.1692    1.3947 H   0  0  0  0  0  0  0  0  0  0  0  0
   -0.8968    2.6635   -1.6456 H   0  0  0  0  0  0  0  0  0  0  0  0
    1.6736    4.2356    1.4174 H   0  0  0  0  0  0  0  0  0  0  0  0
   -0.2789    4.4944   -0.0907 H   0  0  0  0  0  0  0  0  0  0  0  0
   -5.1694    2.1366    0.3768 H   0  0  0  0  0  0  0  0  0  0  0  0
   -5.8608    1.0018   -0.7634 H   0  0  0  0  0  0  0  0  0  0  0  0
  1  2  2  0  0  0  0
  1  3  2  0  0  0  0
  1  5  1  0  0  0  0
  1  9  1  0  0  0  0
  4  6  1  0  0  0  0
  4  8  1  0  0  0  0
  4 10  1  0  0  0  0
  5  8  1  0  0  0  0
  5 23  1  0  0  0  0
  6 14  2  0  0  0  0
  7 19  1  0  0  0  0
  7 35  1  0  0  0  0
  7 36  1  0  0  0  0
  8 11  2  0  0  0  0
  9 12  2  0  0  0  0
  9 13  1  0  0  0  0
 10 17  2  0  0  0  0
 10 18  1  0  0  0  0
 11 14  1  0  0  0  0
 11 24  1  0  0  0  0
 12 15  1  0  0  0  0
 12 25  1  0  0  0  0
 13 16  2  0  0  0  0
 13 26  1  0  0  0  0
 14 27  1  0  0  0  0
 15 19  2  0  0  0  0
 15 28  1  0  0  0  0
 16 19  1  0  0  0  0
 16 29  1  0  0  0  0
 17 20  1  0  0  0  0
 17 30  1  0  0  0  0
 18 21  2  0  0  0  0
 18 31  1  0  0  0  0
 20 22  2  0  0  0  0
 20 32  1  0  0  0  0
 21 22  1  0  0  0  0
 21 33  1  0  0  0  0
 22 34  1  0  0  0  0
M  END
> <DATABASE_ID>
DB06729

> <DATABASE_NAME>
drugbank

> <ORIGINAL_SOURCE>
PUBCHEM

> <ORIGINAL_SOURCE_URL>
https://pubchem.ncbi.nlm.nih.gov/rest/pug/compound/inchikey/QWCJHSGMANYXCW-UHFFFAOYSA-N/SDF?record_type=3d

> <SMILES>
NC1=CC=C(C=C1)S(=O)(=O)NC1=CC=NN1C1=CC=CC=C1

> <INCHI_IDENTIFIER>
InChI=1S/C15H14N4O2S/c16-12-6-8-14(9-7-12)22(20,21)18-15-10-11-17-19(15)13-4-2-1-3-5-13/h1-11,18H,16H2

> <INCHI_KEY>
QWCJHSGMANYXCW-UHFFFAOYSA-N

> <FORMULA>
C15H14N4O2S

> <MOLECULAR_WEIGHT>
314.362

> <EXACT_MASS>
314.083746402

> <JCHEM_ACCEPTOR_COUNT>
4

> <JCHEM_ATOM_COUNT>
36

> <JCHEM_AVERAGE_POLARIZABILITY>
31.817811275190664

> <JCHEM_BIOAVAILABILITY>
1

> <JCHEM_DONOR_COUNT>
2

> <JCHEM_FORMAL_CHARGE>
0

> <JCHEM_GHOSE_FILTER>
1

> <JCHEM_IUPAC>
4-amino-N-(1-phenyl-1H-pyrazol-5-yl)benzene-1-sulfonamide

> <ALOGPS_LOGP>
1.59

> <JCHEM_LOGP>
1.8070946609999998

> <ALOGPS_LOGS>
-3.05

> <JCHEM_MDDR_LIKE_RULE>
0

> <JCHEM_NUMBER_OF_RINGS>
3

> <JCHEM_PHYSIOLOGICAL_CHARGE>
-1

> <JCHEM_PKA_STRONGEST_ACIDIC>
6.820531606896829

> <JCHEM_PKA_STRONGEST_BASIC>
2.43903415725443

> <JCHEM_POLAR_SURFACE_AREA>
90.01

> <JCHEM_REFRACTIVITY>
85.20560000000003

> <JCHEM_ROTATABLE_BOND_COUNT>
3

> <JCHEM_RULE_OF_FIVE>
1

> <ALOGPS_SOLUBILITY>
2.78e-01 g/l

> <JCHEM_TRADITIONAL_IUPAC>
bosutinib monohydrate

> <JCHEM_VEBER_RULE>
0

$$$$
27200
  -OEChem-10051721243D

 36 36  0     1  0  0  0  0  0999 V2000
   -5.9637    1.9100    0.1616 Cl  0  0  0  0  0  0  0  0  0  0  0  0
   -6.4145   -0.8522   -0.6741 Cl  0  0  0  0  0  0  0  0  0  0  0  0
    5.1701    0.2451   -0.4055 S   0  0  0  0  0  0  0  0  0  0  0  0
   -0.9955    1.2945    1.6705 O   0  0  0  0  0  0  0  0  0  0  0  0
   -1.5512   -2.7081    0.1934 O   0  0  0  0  0  0  0  0  0  0  0  0
    5.4337    1.5561   -0.9813 O   0  0  0  0  0  0  0  0  0  0  0  0
    5.9676   -0.2235    0.7198 O   0  0  0  0  0  0  0  0  0  0  0  0
   -3.8432    0.5680   -1.6550 O   0  0  0  0  0  0  0  0  0  0  0  0
   -2.9821   -0.1838    0.3619 N   0  0  0  0  0  0  0  0  0  0  0  0
   -1.6030   -0.2786   -0.0778 C   0  0  1  0  0  0  0  0  0  0  0  0
   -0.6599    0.0222    1.1070 C   0  0  1  0  0  0  0  0  0  0  0  0
    0.8026    0.0778    0.7278 C   0  0  0  0  0  0  0  0  0  0  0  0
   -1.3709   -1.6451   -0.7335 C   0  0  0  0  0  0  0  0  0  0  0  0
    1.7037   -0.7457    1.3815 C   0  0  0  0  0  0  0  0  0  0  0  0
    1.2112    0.9509   -0.2664 C   0  0  0  0  0  0  0  0  0  0  0  0
    3.4812    0.1794    0.0319 C   0  0  0  0  0  0  0  0  0  0  0  0
    3.0528   -0.6946    1.0310 C   0  0  0  0  0  0  0  0  0  0  0  0
    2.5604    1.0020   -0.6169 C   0  0  0  0  0  0  0  0  0  0  0  0
   -3.9953    0.2379   -0.4797 C   0  0  0  0  0  0  0  0  0  0  0  0
    5.3389   -0.9639   -1.6990 C   0  0  0  0  0  0  0  0  0  0  0  0
   -5.3429    0.2518    0.2030 C   0  0  0  0  0  0  0  0  0  0  0  0
   -1.4739    0.4896   -0.8500 H   0  0  0  0  0  0  0  0  0  0  0  0
   -0.8169   -0.7175    1.9021 H   0  0  0  0  0  0  0  0  0  0  0  0
   -0.3580   -1.7152   -1.1426 H   0  0  0  0  0  0  0  0  0  0  0  0
   -2.0757   -1.7990   -1.5582 H   0  0  0  0  0  0  0  0  0  0  0  0
   -3.2082   -0.5102    1.2969 H   0  0  0  0  0  0  0  0  0  0  0  0
    1.3818   -1.4318    2.1595 H   0  0  0  0  0  0  0  0  0  0  0  0
    0.5118    1.6074   -0.7748 H   0  0  0  0  0  0  0  0  0  0  0  0
    3.7518   -1.3487    1.5445 H   0  0  0  0  0  0  0  0  0  0  0  0
    2.8707    1.6872   -1.4007 H   0  0  0  0  0  0  0  0  0  0  0  0
   -1.9373    1.2681    1.9107 H   0  0  0  0  0  0  0  0  0  0  0  0
    5.0656   -1.9452   -1.3065 H   0  0  0  0  0  0  0  0  0  0  0  0
    4.6916   -0.6847   -2.5325 H   0  0  0  0  0  0  0  0  0  0  0  0
    6.3817   -0.9697   -2.0234 H   0  0  0  0  0  0  0  0  0  0  0  0
   -1.3878   -3.5373   -0.2876 H   0  0  0  0  0  0  0  0  0  0  0  0
   -5.2918   -0.0714    1.2457 H   0  0  0  0  0  0  0  0  0  0  0  0
  1 21  1  0  0  0  0
  2 21  1  0  0  0  0
  3  6  2  0  0  0  0
  3  7  2  0  0  0  0
  3 16  1  0  0  0  0
  3 20  1  0  0  0  0
  4 11  1  0  0  0  0
  4 31  1  0  0  0  0
  5 13  1  0  0  0  0
  5 35  1  0  0  0  0
  8 19  2  0  0  0  0
  9 10  1  0  0  0  0
  9 19  1  0  0  0  0
  9 26  1  0  0  0  0
 10 11  1  0  0  0  0
 10 13  1  0  0  0  0
 10 22  1  0  0  0  0
 11 12  1  0  0  0  0
 11 23  1  0  0  0  0
 12 14  2  0  0  0  0
 12 15  1  0  0  0  0
 13 24  1  0  0  0  0
 13 25  1  0  0  0  0
 14 17  1  0  0  0  0
 14 27  1  0  0  0  0
 15 18  2  0  0  0  0
 15 28  1  0  0  0  0
 16 17  2  0  0  0  0
 16 18  1  0  0  0  0
 17 29  1  0  0  0  0
 18 30  1  0  0  0  0
 19 21  1  0  0  0  0
 20 32  1  0  0  0  0
 20 33  1  0  0  0  0
 20 34  1  0  0  0  0
 21 36  1  0  0  0  0
M  END
> <DATABASE_ID>
DB08621

> <DATABASE_NAME>
drugbank

> <ORIGINAL_SOURCE>
PUBCHEM

> <ORIGINAL_SOURCE_URL>
https://pubchem.ncbi.nlm.nih.gov/rest/pug/compound/inchikey/OTVAEFIXJLOWRX-NXEZZACHSA-N/SDF?record_type=3d

> <SMILES>
[H][C@](CO)(NC(=O)C(Cl)Cl)[C@]([H])(O)C1=CC=C(C=C1)S(C)(=O)=O

> <INCHI_IDENTIFIER>
InChI=1S/C12H15Cl2NO5S/c1-21(19,20)8-4-2-7(3-5-8)10(17)9(6-16)15-12(18)11(13)14/h2-5,9-11,16-17H,6H2,1H3,(H,15,18)/t9-,10-/m1/s1

> <INCHI_KEY>
OTVAEFIXJLOWRX-NXEZZACHSA-N

> <FORMULA>
C12H15Cl2NO5S

> <MOLECULAR_WEIGHT>
356.222

> <EXACT_MASS>
355.004798699

> <JCHEM_ACCEPTOR_COUNT>
5

> <JCHEM_AVERAGE_POLARIZABILITY>
32.29455248170721

> <JCHEM_BIOAVAILABILITY>
1

> <JCHEM_DONOR_COUNT>
3

> <JCHEM_FORMAL_CHARGE>
0

> <JCHEM_GHOSE_FILTER>
1

> <JCHEM_IUPAC>
2,2-dichloro-N-[(1R,2R)-1,3-dihydroxy-1-(4-methanesulfonylphenyl)propan-2-yl]acetamide

> <ALOGPS_LOGP>
0.33

> <JCHEM_LOGP>
-0.22097215899999947

> <ALOGPS_LOGS>
-2.20

> <JCHEM_MDDR_LIKE_RULE>
0

> <JCHEM_NUMBER_OF_RINGS>
1

> <JCHEM_PHYSIOLOGICAL_CHARGE>
0

> <JCHEM_PKA>
13.596569191253863

> <JCHEM_PKA_STRONGEST_ACIDIC>
7.64991491229964

> <JCHEM_PKA_STRONGEST_BASIC>
-2.794850218301497

> <JCHEM_POLAR_SURFACE_AREA>
103.69999999999999

> <JCHEM_REFRACTIVITY>
79.87960000000001

> <JCHEM_ROTATABLE_BOND_COUNT>
6

> <JCHEM_RULE_OF_FIVE>
1

> <ALOGPS_SOLUBILITY>
2.27e+00 g/l

> <JCHEM_TRADITIONAL_IUPAC>
thiamphenicol

> <JCHEM_VEBER_RULE>
0

$$$$
3374
  -OEChem-10051722003D

 31 33  0     1  0  0  0  0  0999 V2000
   -3.2560    3.0859   -0.2159 F   0  0  0  0  0  0  0  0  0  0  0  0
    1.7336    2.3970   -0.1490 O   0  0  0  0  0  0  0  0  0  0  0  0
    3.9855    1.2594    0.5925 O   0  0  0  0  0  0  0  0  0  0  0  0
    4.2703   -0.7833   -0.3957 O   0  0  0  0  0  0  0  0  0  0  0  0
    0.1203   -1.3372    0.1508 N   0  0  0  0  0  0  0  0  0  0  0  0
   -0.4536   -2.6948    0.1368 C   0  0  1  0  0  0  0  0  0  0  0  0
   -1.8028   -2.7296    0.8591 C   0  0  0  0  0  0  0  0  0  0  0  0
   -2.7894   -1.7382    0.2572 C   0  0  0  0  0  0  0  0  0  0  0  0
   -0.7567   -0.2302    0.0719 C   0  0  0  0  0  0  0  0  0  0  0  0
   -2.1583   -0.3787    0.1174 C   0  0  0  0  0  0  0  0  0  0  0  0
   -0.2294    1.0756   -0.0403 C   0  0  0  0  0  0  0  0  0  0  0  0
   -0.5389   -3.2140   -1.3017 C   0  0  0  0  0  0  0  0  0  0  0  0
    1.4872   -1.1208    0.1348 C   0  0  0  0  0  0  0  0  0  0  0  0
   -2.9913    0.7456    0.0061 C   0  0  0  0  0  0  0  0  0  0  0  0
    2.0951    0.0676    0.0455 C   0  0  0  0  0  0  0  0  0  0  0  0
    1.2433    1.2786   -0.0565 C   0  0  0  0  0  0  0  0  0  0  0  0
   -1.0681    2.1918   -0.1361 C   0  0  0  0  0  0  0  0  0  0  0  0
   -2.4485    2.0219   -0.1186 C   0  0  0  0  0  0  0  0  0  0  0  0
    3.5579    0.1034    0.0416 C   0  0  0  0  0  0  0  0  0  0  0  0
    0.2160   -3.3693    0.6881 H   0  0  0  0  0  0  0  0  0  0  0  0
   -1.6451   -2.4813    1.9177 H   0  0  0  0  0  0  0  0  0  0  0  0
   -2.2285   -3.7396    0.8324 H   0  0  0  0  0  0  0  0  0  0  0  0
   -3.6706   -1.6802    0.9072 H   0  0  0  0  0  0  0  0  0  0  0  0
   -3.1273   -2.0782   -0.7284 H   0  0  0  0  0  0  0  0  0  0  0  0
    0.4605   -3.2870   -1.7450 H   0  0  0  0  0  0  0  0  0  0  0  0
   -0.9897   -4.2114   -1.3285 H   0  0  0  0  0  0  0  0  0  0  0  0
   -1.1285   -2.5537   -1.9459 H   0  0  0  0  0  0  0  0  0  0  0  0
    2.0546   -2.0439    0.2019 H   0  0  0  0  0  0  0  0  0  0  0  0
   -4.0723    0.6299    0.0233 H   0  0  0  0  0  0  0  0  0  0  0  0
   -0.6651    3.1966   -0.2269 H   0  0  0  0  0  0  0  0  0  0  0  0
    4.9645    1.3204    0.6077 H   0  0  0  0  0  0  0  0  0  0  0  0
  1 18  1  0  0  0  0
  2 16  2  0  0  0  0
  3 19  1  0  0  0  0
  3 31  1  0  0  0  0
  4 19  2  0  0  0  0
  5  6  1  0  0  0  0
  5  9  1  0  0  0  0
  5 13  1  0  0  0  0
  6  7  1  0  0  0  0
  6 12  1  0  0  0  0
  6 20  1  0  0  0  0
  7  8  1  0  0  0  0
  7 21  1  0  0  0  0
  7 22  1  0  0  0  0
  8 10  1  0  0  0  0
  8 23  1  0  0  0  0
  8 24  1  0  0  0  0
  9 10  2  0  0  0  0
  9 11  1  0  0  0  0
 10 14  1  0  0  0  0
 11 16  1  0  0  0  0
 11 17  2  0  0  0  0
 12 25  1  0  0  0  0
 12 26  1  0  0  0  0
 12 27  1  0  0  0  0
 13 15  2  0  0  0  0
 13 28  1  0  0  0  0
 14 18  2  0  0  0  0
 14 29  1  0  0  0  0
 15 16  1  0  0  0  0
 15 19  1  0  0  0  0
 17 18  1  0  0  0  0
 17 30  1  0  0  0  0
M  END
> <DATABASE_ID>
DB08972

> <DATABASE_NAME>
drugbank

> <ORIGINAL_SOURCE>
PUBCHEM

> <ORIGINAL_SOURCE_URL>
https://pubchem.ncbi.nlm.nih.gov/rest/pug/compound/inchikey/DPSPPJIUMHPXMA-UHFFFAOYSA-N/SDF?record_type=3d

> <SMILES>
CC1CCC2=CC(F)=CC3=C2N1C=C(C(O)=O)C3=O

> <INCHI_IDENTIFIER>
InChI=1S/C14H12FNO3/c1-7-2-3-8-4-9(15)5-10-12(8)16(7)6-11(13(10)17)14(18)19/h4-7H,2-3H2,1H3,(H,18,19)

> <INCHI_KEY>
DPSPPJIUMHPXMA-UHFFFAOYSA-N

> <FORMULA>
C14H12FNO3

> <MOLECULAR_WEIGHT>
261.2484

> <EXACT_MASS>
261.08012146

> <JCHEM_ACCEPTOR_COUNT>
4

> <JCHEM_AVERAGE_POLARIZABILITY>
25.246669797951256

> <JCHEM_BIOAVAILABILITY>
1

> <JCHEM_DONOR_COUNT>
1

> <JCHEM_FORMAL_CHARGE>
0

> <JCHEM_GHOSE_FILTER>
1

> <JCHEM_IUPAC>
7-fluoro-12-methyl-4-oxo-1-azatricyclo[7.3.1.0⁵,¹³]trideca-2,5(13),6,8-tetraene-3-carboxylic acid

> <ALOGPS_LOGP>
1.62

> <JCHEM_LOGP>
2.416839571

> <ALOGPS_LOGS>
-2.32

> <JCHEM_MDDR_LIKE_RULE>
0

> <JCHEM_NUMBER_OF_RINGS>
3

> <JCHEM_PHYSIOLOGICAL_CHARGE>
-1

> <JCHEM_PKA_STRONGEST_ACIDIC>
6.004770867103982

> <JCHEM_PKA_STRONGEST_BASIC>
-4.310946343966191

> <JCHEM_POLAR_SURFACE_AREA>
57.61

> <JCHEM_REFRACTIVITY>
67.8736

> <JCHEM_ROTATABLE_BOND_COUNT>
1

> <JCHEM_RULE_OF_FIVE>
1

> <ALOGPS_SOLUBILITY>
1.24e+00 g/l

> <JCHEM_TRADITIONAL_IUPAC>
flumequine

> <JCHEM_VEBER_RULE>
0

$$$$

  Mrv1909 01232000132D          

 35 38  0  0  0  0            999 V2000
   -3.5775   -0.2040    0.0000 C   0  0  0  0  0  0  0  0  0  0  0  0
   -3.5775    0.6210    0.0000 C   0  0  0  0  0  0  0  0  0  0  0  0
   -2.8631    1.0333    0.0000 C   0  0  0  0  0  0  0  0  0  0  0  0
   -2.1486    0.6210    0.0000 C   0  0  0  0  0  0  0  0  0  0  0  0
   -2.1486   -0.2040    0.0000 C   0  0  0  0  0  0  0  0  0  0  0  0
   -2.8631   -0.6165    0.0000 C   0  0  0  0  0  0  0  0  0  0  0  0
   -1.4341    1.0333    0.0000 C   0  0  0  0  0  0  0  0  0  0  0  0
   -0.7197    0.6210    0.0000 C   0  0  0  0  0  0  0  0  0  0  0  0
   -0.7197   -0.2040    0.0000 C   0  0  1  0  0  0  0  0  0  0  0  0
   -1.4341   -0.6165    0.0000 C   0  0  1  0  0  0  0  0  0  0  0  0
   -0.0051    1.0333    0.0000 C   0  0  0  0  0  0  0  0  0  0  0  0
    0.7093    0.6210    0.0000 C   0  0  1  0  0  0  0  0  0  0  0  0
    0.7093   -0.2040    0.0000 C   0  0  1  0  0  0  0  0  0  0  0  0
   -0.0051   -0.6165    0.0000 C   0  0  0  0  0  0  0  0  0  0  0  0
    1.4237    1.0333    0.0000 C   0  0  0  0  0  0  0  0  0  0  0  0
    2.1382    0.6210    0.0000 C   0  0  0  0  0  0  0  0  0  0  0  0
    2.1382   -0.2040    0.0000 C   0  0  0  0  0  0  0  0  0  0  0  0
    1.4237   -0.6165    0.0000 C   0  0  1  0  0  0  0  0  0  0  0  0
   -2.8631   -1.4414    0.0000 Cl  0  0  0  0  0  0  0  0  0  0  0  0
   -2.8631    1.8583    0.0000 O   0  0  0  0  0  0  0  0  0  0  0  0
   -1.4341    1.8584    0.0000 O   0  0  0  0  0  0  0  0  0  0  0  0
   -0.0051    1.8583    0.0000 O   0  0  0  0  0  0  0  0  0  0  0  0
    1.4237    1.8584    0.0000 O   0  0  0  0  0  0  0  0  0  0  0  0
    2.8660    1.0412    0.0000 C   0  0  0  0  0  0  0  0  0  0  0  0
    2.8660   -0.6244    0.0000 O   0  0  0  0  0  0  0  0  0  0  0  0
    3.5775    0.6307    0.0000 N   0  0  0  0  0  0  0  0  0  0  0  0
    2.8658    1.8584    0.0000 O   0  0  0  0  0  0  0  0  0  0  0  0
   -0.7197   -0.8302    0.0000 H   0  0  0  0  0  0  0  0  0  0  0  0
    0.7093   -0.8302    0.0000 H   0  0  0  0  0  0  0  0  0  0  0  0
    1.4237   -1.4415    0.0000 N   0  0  0  0  0  0  0  0  0  0  0  0
    0.7093    1.4459    0.0000 O   0  0  0  0  0  0  0  0  0  0  0  0
    0.7017   -1.8584    0.0000 C   0  0  0  0  0  0  0  0  0  0  0  0
    2.1307   -1.8496    0.0000 C   0  0  0  0  0  0  0  0  0  0  0  0
   -1.0215   -1.3310    0.0000 C   0  0  0  0  0  0  0  0  0  0  0  0
   -1.8465   -1.3310    0.0000 O   0  0  0  0  0  0  0  0  0  0  0  0
  1  2  2  0  0  0  0
  2  3  1  0  0  0  0
  3  4  2  0  0  0  0
  4  5  1  0  0  0  0
  5  6  2  0  0  0  0
  1  6  1  0  0  0  0
  4  7  1  0  0  0  0
  7  8  1  0  0  0  0
  8  9  1  0  0  0  0
  9 10  1  0  0  0  0
  5 10  1  0  0  0  0
  8 11  2  0  0  0  0
 11 12  1  0  0  0  0
 12 13  1  0  0  0  0
 13 14  1  0  0  0  0
  9 14  1  0  0  0  0
 12 15  1  0  0  0  0
 15 16  1  0  0  0  0
 16 17  2  0  0  0  0
 17 18  1  0  0  0  0
 13 18  1  0  0  0  0
  6 19  1  0  0  0  0
  3 20  1  0  0  0  0
  7 21  2  0  0  0  0
 11 22  1  0  0  0  0
 15 23  2  0  0  0  0
 16 24  1  0  0  0  0
 17 25  1  0  0  0  0
 24 26  1  0  0  0  0
 24 27  2  0  0  0  0
  9 28  1  1  0  0  0
 13 29  1  1  0  0  0
 18 30  1  1  0  0  0
 12 31  1  1  0  0  0
 30 32  1  0  0  0  0
 30 33  1  0  0  0  0
 10 34  1  1  0  0  0
 10 35  1  6  0  0  0
M  END
> <DATABASE_ID>
DB09093

> <DATABASE_NAME>
drugbank

> <SMILES>
[H][C@@]12C[C@@]3([H])C(=C(O)[C@]1(O)C(=O)C(C(N)=O)=C(O)[C@H]2N(C)C)C(=O)C1=C(O)C=CC(Cl)=C1[C@@]3(C)O

> <INCHI_IDENTIFIER>
InChI=1S/C22H23ClN2O8/c1-21(32)7-6-8-15(25(2)3)17(28)13(20(24)31)19(30)22(8,33)18(29)11(7)16(27)12-10(26)5-4-9(23)14(12)21/h4-5,7-8,15,26,28-29,32-33H,6H2,1-3H3,(H2,24,31)/t7-,8-,15-,21-,22-/m0/s1

> <INCHI_KEY>
CYDMQBQPVICBEU-XRNKAMNCSA-N

> <FORMULA>
C22H23ClN2O8

> <MOLECULAR_WEIGHT>
478.88

> <EXACT_MASS>
478.114293429

> <JCHEM_ACCEPTOR_COUNT>
9

> <JCHEM_ATOM_COUNT>
56

> <JCHEM_AVERAGE_NEUTRAL_MICROSPECIES_CHARGE>
1.0417979757622962

> <JCHEM_AVERAGE_POLARIZABILITY>
45.60867277116377

> <JCHEM_BIOAVAILABILITY>
1

> <JCHEM_DONOR_COUNT>
6

> <JCHEM_FORMAL_CHARGE>
0

> <JCHEM_GHOSE_FILTER>
0

> <JCHEM_IUPAC>
(4S,4aS,5aS,6S,12aS)-7-chloro-4-(dimethylamino)-3,6,10,12,12a-pentahydroxy-6-methyl-1,11-dioxo-1,4,4a,5,5a,6,11,12a-octahydrotetracene-2-carboxamide

> <ALOGPS_LOGP>
-0.13

> <JCHEM_LOGP>
-2.8981170487198917

> <ALOGPS_LOGS>
-3.27

> <JCHEM_MDDR_LIKE_RULE>
0

> <JCHEM_NEUTRAL_CHARGE>
-1

> <JCHEM_NUMBER_OF_RINGS>
4

> <JCHEM_PHYSIOLOGICAL_CHARGE>
-1

> <JCHEM_PKA>
7.011157126883931

> <JCHEM_PKA_STRONGEST_ACIDIC>
2.9854296039033854

> <JCHEM_PKA_STRONGEST_BASIC>
9.043365094975377

> <JCHEM_POLAR_SURFACE_AREA>
181.61999999999998

> <JCHEM_REFRACTIVITY>
118.99309999999996

> <JCHEM_ROTATABLE_BOND_COUNT>
2

> <JCHEM_RULE_OF_FIVE>
0

> <ALOGPS_SOLUBILITY>
2.59e-01 g/l

> <JCHEM_TRADITIONAL_IUPAC>
chlortetracycline

> <JCHEM_VEBER_RULE>
0

> <DRUGBANK_ID>
DB09093

> <DRUG_GROUPS>
approved; investigational; vet_approved

> <GENERIC_NAME>
Chlortetracycline

> <SYNONYMS>
Chlortetracycline; Chlortétracycline; Chlortetracyclinum; Clortetraciclina

> <PRODUCTS>
Aureomycin - Ont Top 3%; Aureomycin Ont 3%; Aureomycin Ont Oph 1%

> <INTERNATIONAL_BRANDS>
Aueromycin

> <SALTS>
Chlortetracycline bisulfate; Chlortetracycline calcium complex; Chlortetracycline hydrochloride

$$$$
439369
  -OEChem-01152014103D

 81 83  0     1  0  0  0  0  0999 V2000
    0.3232   -0.6192   -0.1434 O   0  0  0  0  0  0  0  0  0  0  0  0
   -0.1279   -2.7523    0.7797 O   0  0  0  0  0  0  0  0  0  0  0  0
   -2.7172   -0.2925    0.5212 O   0  0  0  0  0  0  0  0  0  0  0  0
   -2.8175   -2.6312    1.9625 O   0  0  0  0  0  0  0  0  0  0  0  0
   -3.1273    0.3370   -1.7234 O   0  0  0  0  0  0  0  0  0  0  0  0
    2.1959   -2.6699   -0.8257 O   0  0  0  0  0  0  0  0  0  0  0  0
    3.9519    2.2661    1.1131 O   0  0  0  0  0  0  0  0  0  0  0  0
    4.7948   -1.6839   -1.4576 O   0  0  0  0  0  0  0  0  0  0  0  0
   -3.3553   -3.3606   -1.5534 O   0  0  0  0  0  0  0  0  0  0  0  0
   -4.6953    3.6652    0.1584 O   0  0  0  0  0  0  0  0  0  0  0  0
   -2.2216    3.8748   -1.2494 O   0  0  0  0  0  0  0  0  0  0  0  0
   -0.9678    0.4153   -3.4094 O   0  0  0  0  0  0  0  0  0  0  0  0
    1.3169    1.2659    1.8210 N   0  0  0  0  0  0  0  0  0  0  0  0
   -5.1447    0.9902    1.3328 N   0  0  0  0  0  0  0  0  0  0  0  0
    5.8510    0.1826    0.5071 N   0  0  0  0  0  0  0  0  0  0  0  0
    1.4295    3.5079    0.9658 N   0  0  0  0  0  0  0  0  0  0  0  0
    0.3358    3.0492    2.9123 N   0  0  0  0  0  0  0  0  0  0  0  0
    8.1148    0.2223    0.0519 N   0  0  0  0  0  0  0  0  0  0  0  0
    6.7027    0.3706   -1.7310 N   0  0  0  0  0  0  0  0  0  0  0  0
   -1.9382   -1.3906    0.0881 C   0  0  2  0  0  0  0  0  0  0  0  0
   -2.4838   -2.7215    0.5769 C   0  0  1  0  0  0  0  0  0  0  0  0
   -0.5403   -1.3769    0.6912 C   0  0  2  0  0  0  0  0  0  0  0  0
    1.6658   -0.6359    0.3500 C   0  0  2  0  0  0  0  0  0  0  0  0
   -1.2400   -3.5946    0.4041 C   0  0  2  0  0  0  0  0  0  0  0  0
    2.1005    0.7963    0.6647 C   0  0  2  0  0  0  0  0  0  0  0  0
    2.5633   -1.2923   -0.7007 C   0  0  1  0  0  0  0  0  0  0  0  0
    3.5843    0.8867    1.0302 C   0  0  1  0  0  0  0  0  0  0  0  0
    4.0455   -1.2075   -0.3365 C   0  0  2  0  0  0  0  0  0  0  0  0
    4.4766    0.2261   -0.0231 C   0  0  2  0  0  0  0  0  0  0  0  0
   -3.7051    0.0688   -0.4423 C   0  0  2  0  0  0  0  0  0  0  0  0
   -3.7030   -3.2124   -0.1871 C   0  0  0  0  0  0  0  0  0  0  0  0
   -4.5827    1.2466    0.0066 C   0  0  2  0  0  0  0  0  0  0  0  0
   -3.7981    2.5654   -0.0101 C   0  0  1  0  0  0  0  0  0  0  0  0
   -1.2007   -4.8623    1.2404 C   0  0  0  0  0  0  0  0  0  0  0  0
   -3.0888    2.7479   -1.3566 C   0  0  2  0  0  0  0  0  0  0  0  0
   -2.2891    1.4965   -1.7378 C   0  0  2  0  0  0  0  0  0  0  0  0
   -1.6958    1.5995   -3.1404 C   0  0  0  0  0  0  0  0  0  0  0  0
    1.0618    2.5320    1.8654 C   0  0  0  0  0  0  0  0  0  0  0  0
   -5.8784   -0.2654    1.3467 C   0  0  0  0  0  0  0  0  0  0  0  0
    6.8041    0.2562   -0.3624 C   0  0  0  0  0  0  0  0  0  0  0  0
   -1.8106   -1.3952   -1.0015 H   0  0  0  0  0  0  0  0  0  0  0  0
   -0.5501   -0.9437    1.6992 H   0  0  0  0  0  0  0  0  0  0  0  0
    1.7320   -1.2279    1.2752 H   0  0  0  0  0  0  0  0  0  0  0  0
   -1.0778   -3.8568   -0.6485 H   0  0  0  0  0  0  0  0  0  0  0  0
    1.8844    1.3943   -0.2294 H   0  0  0  0  0  0  0  0  0  0  0  0
    2.3807   -0.8412   -1.6844 H   0  0  0  0  0  0  0  0  0  0  0  0
    3.7588    0.4413    2.0184 H   0  0  0  0  0  0  0  0  0  0  0  0
    4.2585   -1.8816    0.5033 H   0  0  0  0  0  0  0  0  0  0  0  0
    4.4191    0.8510   -0.9231 H   0  0  0  0  0  0  0  0  0  0  0  0
   -4.3652   -0.7726   -0.6295 H   0  0  0  0  0  0  0  0  0  0  0  0
   -3.9826   -4.2075    0.1791 H   0  0  0  0  0  0  0  0  0  0  0  0
   -4.6078   -2.6189   -0.0706 H   0  0  0  0  0  0  0  0  0  0  0  0
   -5.4092    1.3555   -0.7109 H   0  0  0  0  0  0  0  0  0  0  0  0
   -3.0716    2.6105    0.8106 H   0  0  0  0  0  0  0  0  0  0  0  0
   -1.1853   -4.6385    2.3123 H   0  0  0  0  0  0  0  0  0  0  0  0
   -0.2783   -5.4167    1.0344 H   0  0  0  0  0  0  0  0  0  0  0  0
   -2.0506   -5.5148    1.0224 H   0  0  0  0  0  0  0  0  0  0  0  0
   -3.8353    2.9752   -2.1286 H   0  0  0  0  0  0  0  0  0  0  0  0
   -1.4618    1.3482   -1.0322 H   0  0  0  0  0  0  0  0  0  0  0  0
   -3.2295   -3.4691    2.2332 H   0  0  0  0  0  0  0  0  0  0  0  0
   -5.7755    1.7542    1.5751 H   0  0  0  0  0  0  0  0  0  0  0  0
    2.7844   -3.0680   -1.4898 H   0  0  0  0  0  0  0  0  0  0  0  0
    4.8958    2.3019    1.3444 H   0  0  0  0  0  0  0  0  0  0  0  0
    5.6924   -1.8867   -1.1453 H   0  0  0  0  0  0  0  0  0  0  0  0
   -2.4841    1.6776   -3.8958 H   0  0  0  0  0  0  0  0  0  0  0  0
   -1.0197    2.4525   -3.2458 H   0  0  0  0  0  0  0  0  0  0  0  0
   -3.4139   -2.4857   -1.9721 H   0  0  0  0  0  0  0  0  0  0  0  0
   -5.3600    3.6256   -0.5501 H   0  0  0  0  0  0  0  0  0  0  0  0
   -1.9245    4.1075   -2.1448 H   0  0  0  0  0  0  0  0  0  0  0  0
   -6.5181   -0.2855    2.2361 H   0  0  0  0  0  0  0  0  0  0  0  0
   -5.2125   -1.1241    1.4451 H   0  0  0  0  0  0  0  0  0  0  0  0
   -6.5358   -0.3868    0.4793 H   0  0  0  0  0  0  0  0  0  0  0  0
   -0.2536    0.3507   -2.7525 H   0  0  0  0  0  0  0  0  0  0  0  0
    1.1550    4.4735    1.1127 H   0  0  0  0  0  0  0  0  0  0  0  0
    2.0081    3.3279    0.1544 H   0  0  0  0  0  0  0  0  0  0  0  0
   -0.0075    2.4520    3.6567 H   0  0  0  0  0  0  0  0  0  0  0  0
    0.1205    4.0384    2.9712 H   0  0  0  0  0  0  0  0  0  0  0  0
    8.3511    0.1398    1.0348 H   0  0  0  0  0  0  0  0  0  0  0  0
    8.8818    0.2771   -0.6091 H   0  0  0  0  0  0  0  0  0  0  0  0
    7.5366    0.4269   -2.3062 H   0  0  0  0  0  0  0  0  0  0  0  0
    5.8197    0.3654   -2.2268 H   0  0  0  0  0  0  0  0  0  0  0  0
  1 22  1  0  0  0  0
  1 23  1  0  0  0  0
  2 22  1  0  0  0  0
  2 24  1  0  0  0  0
  3 20  1  0  0  0  0
  3 30  1  0  0  0  0
  4 21  1  0  0  0  0
  4 60  1  0  0  0  0
  5 30  1  0  0  0  0
  5 36  1  0  0  0  0
  6 26  1  0  0  0  0
  6 62  1  0  0  0  0
  7 27  1  0  0  0  0
  7 63  1  0  0  0  0
  8 28  1  0  0  0  0
  8 64  1  0  0  0  0
  9 31  1  0  0  0  0
  9 67  1  0  0  0  0
 10 33  1  0  0  0  0
 10 68  1  0  0  0  0
 11 35  1  0  0  0  0
 11 69  1  0  0  0  0
 12 37  1  0  0  0  0
 12 73  1  0  0  0  0
 13 25  1  0  0  0  0
 13 38  2  0  0  0  0
 14 32  1  0  0  0  0
 14 39  1  0  0  0  0
 14 61  1  0  0  0  0
 15 29  1  0  0  0  0
 15 40  2  0  0  0  0
 16 38  1  0  0  0  0
 16 74  1  0  0  0  0
 16 75  1  0  0  0  0
 17 38  1  0  0  0  0
 17 76  1  0  0  0  0
 17 77  1  0  0  0  0
 18 40  1  0  0  0  0
 18 78  1  0  0  0  0
 18 79  1  0  0  0  0
 19 40  1  0  0  0  0
 19 80  1  0  0  0  0
 19 81  1  0  0  0  0
 20 21  1  0  0  0  0
 20 22  1  0  0  0  0
 20 41  1  0  0  0  0
 21 24  1  0  0  0  0
 21 31  1  0  0  0  0
 22 42  1  0  0  0  0
 23 25  1  0  0  0  0
 23 26  1  0  0  0  0
 23 43  1  0  0  0  0
 24 34  1  0  0  0  0
 24 44  1  0  0  0  0
 25 27  1  0  0  0  0
 25 45  1  0  0  0  0
 26 28  1  0  0  0  0
 26 46  1  0  0  0  0
 27 29  1  0  0  0  0
 27 47  1  0  0  0  0
 28 29  1  0  0  0  0
 28 48  1  0  0  0  0
 29 49  1  0  0  0  0
 30 32  1  0  0  0  0
 30 50  1  0  0  0  0
 31 51  1  0  0  0  0
 31 52  1  0  0  0  0
 32 33  1  0  0  0  0
 32 53  1  0  0  0  0
 33 35  1  0  0  0  0
 33 54  1  0  0  0  0
 34 55  1  0  0  0  0
 34 56  1  0  0  0  0
 34 57  1  0  0  0  0
 35 36  1  0  0  0  0
 35 58  1  0  0  0  0
 36 37  1  0  0  0  0
 36 59  1  0  0  0  0
 37 65  1  0  0  0  0
 37 66  1  0  0  0  0
 39 70  1  0  0  0  0
 39 71  1  0  0  0  0
 39 72  1  0  0  0  0
M  END
> <DATABASE_ID>
DB11512

> <DATABASE_NAME>
drugbank

> <ORIGINAL_SOURCE>
PUBCHEM

> <ORIGINAL_SOURCE_URL>
https://pubchem.ncbi.nlm.nih.gov/rest/pug/compound/inchikey/ASXBYYWOLISCLQ-HZYVHMACSA-N/SDF?record_type=3d

> <SMILES>
CN[C@H]1[C@H](O)[C@@H](O)[C@H](CO)O[C@H]1O[C@H]1[C@H](O[C@H]2[C@H](O)[C@@H](O)[C@H](NC(N)=N)[C@@H](O)[C@@H]2NC(N)=N)O[C@@H](C)[C@]1(O)CO

> <INCHI_IDENTIFIER>
InChI=1S/C21H41N7O12/c1-5-21(36,4-30)16(40-17-9(26-2)13(34)10(31)6(3-29)38-17)18(37-5)39-15-8(28-20(24)25)11(32)7(27-19(22)23)12(33)14(15)35/h5-18,26,29-36H,3-4H2,1-2H3,(H4,22,23,27)(H4,24,25,28)/t5-,6-,7+,8-,9-,10-,11+,12-,13-,14+,15+,16-,17-,18-,21+/m0/s1

> <INCHI_KEY>
ASXBYYWOLISCLQ-HZYVHMACSA-N

> <FORMULA>
C21H41N7O12

> <MOLECULAR_WEIGHT>
583.596

> <EXACT_MASS>
583.281319788

> <JCHEM_ACCEPTOR_COUNT>
19

> <JCHEM_ATOM_COUNT>
81

> <JCHEM_AVERAGE_NEUTRAL_MICROSPECIES_CHARGE>
2.925707682129069

> <JCHEM_AVERAGE_POLARIZABILITY>
56.66441231156106

> <JCHEM_BIOAVAILABILITY>
0

> <JCHEM_DONOR_COUNT>
15

> <JCHEM_FORMAL_CHARGE>
0

> <JCHEM_GHOSE_FILTER>
0

> <JCHEM_IUPAC>
N-[(1S,2R,3R,4S,5R,6R)-3-carbamimidamido-6-{[(2R,3R,4R,5S)-3-{[(2S,3S,4S,5R,6S)-4,5-dihydroxy-6-(hydroxymethyl)-3-(methylamino)oxan-2-yl]oxy}-4-hydroxy-4-(hydroxymethyl)-5-methyloxolan-2-yl]oxy}-2,4,5-trihydroxycyclohexyl]guanidine

> <ALOGPS_LOGP>
-3.02

> <JCHEM_LOGP>
-7.349804055213099

> <ALOGPS_LOGS>
-1.56

> <JCHEM_MDDR_LIKE_RULE>
1

> <JCHEM_NEUTRAL_CHARGE>
3

> <JCHEM_NUMBER_OF_RINGS>
3

> <JCHEM_PHYSIOLOGICAL_CHARGE>
3

> <JCHEM_PKA_STRONGEST_ACIDIC>
12.106282431456165

> <JCHEM_PKA_STRONGEST_BASIC>
11.30815817921976

> <JCHEM_POLAR_SURFACE_AREA>
334.59000000000003

> <JCHEM_REFRACTIVITY>
150.4536

> <JCHEM_ROTATABLE_BOND_COUNT>
9

> <JCHEM_RULE_OF_FIVE>
0

> <ALOGPS_SOLUBILITY>
1.60e+01 g/l

> <JCHEM_TRADITIONAL_IUPAC>
[(2R,3S,4R,5R)-3,4-dihydroxy-5-(4-hydroxy-5-methyl-2-oxopyrimidin-1-yl)oxolan-2-yl]methoxyphosphonic acid

> <JCHEM_VEBER_RULE>
0

$$$$
6324616
  -OEChem-02212014103D

 97100  0     1  0  0  0  0  0999 V2000
   -0.1653    1.3444    1.7859 O   0  0  0  0  0  0  0  0  0  0  0  0
   -0.8924    0.6829   -1.5030 O   0  0  0  0  0  0  0  0  0  0  0  0
   -4.6175    3.6445   -2.0937 O   0  0  0  0  0  0  0  0  0  0  0  0
    4.0763    3.5026    0.8440 O   0  0  0  0  0  0  0  0  0  0  0  0
    4.7567    0.2837   -1.7154 O   0  0  0  0  0  0  0  0  0  0  0  0
    4.5241   -1.2644    0.1928 O   0  0  0  0  0  0  0  0  0  0  0  0
    1.6481    0.1321    2.5466 O   0  0  0  0  0  0  0  0  0  0  0  0
    3.2741   -1.8176   -3.0487 O   0  0  0  0  0  0  0  0  0  0  0  0
    0.7198   -2.1521    2.9217 O   0  0  0  0  0  0  0  0  0  0  0  0
    0.8810   -2.4114   -3.1961 O   0  0  0  0  0  0  0  0  0  0  0  0
   -1.4583   -2.4618    1.7907 O   0  0  0  0  0  0  0  0  0  0  0  0
   -3.7464   -2.9052    1.6445 O   0  0  0  0  0  0  0  0  0  0  0  0
   -3.0591   -2.6466   -0.6250 N   0  0  0  0  0  0  0  0  0  0  0  0
   -0.2837    2.6847   -0.2748 C   0  0  2  0  0  0  0  0  0  0  0  0
   -1.4660    1.8046   -0.8079 C   0  0  1  0  0  0  0  0  0  0  0  0
    0.6134    1.8253    0.6832 C   0  0  1  0  0  0  0  0  0  0  0  0
   -2.5346    2.4114   -1.7627 C   0  0  1  0  0  0  0  0  0  0  0  0
    1.9304    2.4200    1.2663 C   0  0  1  0  0  0  0  0  0  0  0  0
   -3.6560    3.2632   -1.1001 C   0  0  2  0  0  0  0  0  0  0  0  0
   -0.7703    3.9684    0.3888 C   0  0  0  0  0  0  0  0  0  0  0  0
    2.9054    2.9897    0.2021 C   0  0  2  0  0  0  0  0  0  0  0  0
   -4.3866    2.6101    0.1026 C   0  0  1  0  0  0  0  0  0  0  0  0
   -1.8863    3.1840   -2.9264 C   0  0  0  0  0  0  0  0  0  0  0  0
    1.7316    3.3983    2.4387 C   0  0  0  0  0  0  0  0  0  0  0  0
   -5.3478    3.6150    0.7565 C   0  0  0  0  0  0  0  0  0  0  0  0
    3.3240    1.9659   -0.8248 C   0  0  0  0  0  0  0  0  0  0  0  0
   -5.1771    1.3733   -0.2708 C   0  0  0  0  0  0  0  0  0  0  0  0
    0.4859    0.5036    2.6378 C   0  0  0  0  0  0  0  0  0  0  0  0
    4.4372    1.2230   -0.7733 C   0  0  0  0  0  0  0  0  0  0  0  0
   -4.8461    0.1303    0.1116 C   0  0  0  0  0  0  0  0  0  0  0  0
    4.6894   -1.0703   -1.2341 C   0  0  1  0  0  0  0  0  0  0  0  0
    4.9463    4.1170   -0.0917 C   0  0  0  0  0  0  0  0  0  0  0  0
   -0.4453    0.0847    3.7349 C   0  0  0  0  0  0  0  0  0  0  0  0
    2.5022   -1.8960   -0.7792 C   0  0  0  0  0  0  0  0  0  0  0  0
    3.4340   -1.6420   -1.8570 C   0  0  0  0  0  0  0  0  0  0  0  0
    3.2212   -1.6537    0.3765 C   0  0  0  0  0  0  0  0  0  0  0  0
    1.1412   -2.2106   -0.7740 C   0  0  0  0  0  0  0  0  0  0  0  0
    5.9309   -1.8204   -1.6896 C   0  0  0  0  0  0  0  0  0  0  0  0
   -5.6617   -1.0368   -0.1676 C   0  0  0  0  0  0  0  0  0  0  0  0
    2.6291   -1.7627    1.6165 C   0  0  0  0  0  0  0  0  0  0  0  0
    0.5078   -2.2726    0.4916 C   0  0  0  0  0  0  0  0  0  0  0  0
    1.2678   -2.0724    1.6686 C   0  0  0  0  0  0  0  0  0  0  0  0
    0.3727   -2.4118   -1.9340 C   0  0  0  0  0  0  0  0  0  0  0  0
   -0.8826   -2.4809    0.5587 C   0  0  0  0  0  0  0  0  0  0  0  0
   -5.3070   -2.3205    0.0262 C   0  0  0  0  0  0  0  0  0  0  0  0
   -1.6476   -2.6077   -0.6050 C   0  0  0  0  0  0  0  0  0  0  0  0
    3.4207   -1.5165    2.8564 C   0  0  0  0  0  0  0  0  0  0  0  0
   -1.0050   -2.6040   -1.8467 C   0  0  0  0  0  0  0  0  0  0  0  0
   -3.9174   -2.6363    0.4637 C   0  0  0  0  0  0  0  0  0  0  0  0
   -6.2111   -3.4884   -0.2053 C   0  0  0  0  0  0  0  0  0  0  0  0
    0.3406    2.9594   -1.1339 H   0  0  0  0  0  0  0  0  0  0  0  0
   -1.9749    1.3635    0.0523 H   0  0  0  0  0  0  0  0  0  0  0  0
    0.9099    0.9399    0.1064 H   0  0  0  0  0  0  0  0  0  0  0  0
   -3.0442    1.5677   -2.2518 H   0  0  0  0  0  0  0  0  0  0  0  0
    2.5640    1.6461    1.6933 H   0  0  0  0  0  0  0  0  0  0  0  0
   -3.2324    4.2082   -0.7552 H   0  0  0  0  0  0  0  0  0  0  0  0
   -1.4406    3.7639    1.2288 H   0  0  0  0  0  0  0  0  0  0  0  0
    0.0618    4.5732    0.7473 H   0  0  0  0  0  0  0  0  0  0  0  0
   -1.2835    4.6142   -0.3246 H   0  0  0  0  0  0  0  0  0  0  0  0
    2.4126    3.8266   -0.3090 H   0  0  0  0  0  0  0  0  0  0  0  0
   -3.6482    2.3577    0.8721 H   0  0  0  0  0  0  0  0  0  0  0  0
   -1.4350    4.1215   -2.5891 H   0  0  0  0  0  0  0  0  0  0  0  0
   -1.1057    2.5848   -3.4069 H   0  0  0  0  0  0  0  0  0  0  0  0
   -2.6247    3.4287   -3.6970 H   0  0  0  0  0  0  0  0  0  0  0  0
    0.8711    3.1585    3.0679 H   0  0  0  0  0  0  0  0  0  0  0  0
    2.6130    3.3819    3.0913 H   0  0  0  0  0  0  0  0  0  0  0  0
    1.6272    4.4306    2.0947 H   0  0  0  0  0  0  0  0  0  0  0  0
   -1.6180    0.0771   -1.7287 H   0  0  0  0  0  0  0  0  0  0  0  0
   -5.8231    3.1801    1.6433 H   0  0  0  0  0  0  0  0  0  0  0  0
   -4.8075    4.5120    1.0785 H   0  0  0  0  0  0  0  0  0  0  0  0
   -6.1433    3.9282    0.0712 H   0  0  0  0  0  0  0  0  0  0  0  0
    2.6446    1.8192   -1.6616 H   0  0  0  0  0  0  0  0  0  0  0  0
   -4.9443    2.8356   -2.5224 H   0  0  0  0  0  0  0  0  0  0  0  0
   -6.0831    1.5279   -0.8540 H   0  0  0  0  0  0  0  0  0  0  0  0
    5.1619    1.2502    0.0289 H   0  0  0  0  0  0  0  0  0  0  0  0
   -3.9377   -0.0150    0.6891 H   0  0  0  0  0  0  0  0  0  0  0  0
    5.6602    3.4183   -0.5319 H   0  0  0  0  0  0  0  0  0  0  0  0
    4.4080    4.6645   -0.8733 H   0  0  0  0  0  0  0  0  0  0  0  0
    5.5436    4.8506    0.4599 H   0  0  0  0  0  0  0  0  0  0  0  0
   -1.2575   -0.5321    3.3524 H   0  0  0  0  0  0  0  0  0  0  0  0
   -0.8688    0.9830    4.1964 H   0  0  0  0  0  0  0  0  0  0  0  0
    0.1011   -0.4404    4.5228 H   0  0  0  0  0  0  0  0  0  0  0  0
    6.8225   -1.4047   -1.2068 H   0  0  0  0  0  0  0  0  0  0  0  0
    5.8784   -2.8811   -1.4216 H   0  0  0  0  0  0  0  0  0  0  0  0
    6.0771   -1.7379   -2.7719 H   0  0  0  0  0  0  0  0  0  0  0  0
   -6.6644   -0.8319   -0.5393 H   0  0  0  0  0  0  0  0  0  0  0  0
    4.0087   -0.5945    2.7691 H   0  0  0  0  0  0  0  0  0  0  0  0
    4.1292   -2.3433    2.9878 H   0  0  0  0  0  0  0  0  0  0  0  0
    2.8558   -1.4501    3.7905 H   0  0  0  0  0  0  0  0  0  0  0  0
   -1.5956   -2.7154   -2.7547 H   0  0  0  0  0  0  0  0  0  0  0  0
   -3.4781   -2.5960   -1.5518 H   0  0  0  0  0  0  0  0  0  0  0  0
   -6.3471   -4.0547    0.7218 H   0  0  0  0  0  0  0  0  0  0  0  0
   -5.7870   -4.1579   -0.9607 H   0  0  0  0  0  0  0  0  0  0  0  0
   -7.2007   -3.1757   -0.5542 H   0  0  0  0  0  0  0  0  0  0  0  0
    1.3106   -2.6775    3.4873 H   0  0  0  0  0  0  0  0  0  0  0  0
    0.1748   -2.5686   -3.8455 H   0  0  0  0  0  0  0  0  0  0  0  0
   -0.8739   -2.8943    2.4342 H   0  0  0  0  0  0  0  0  0  0  0  0
  1 16  1  0  0  0  0
  1 28  1  0  0  0  0
  2 15  1  0  0  0  0
  2 68  1  0  0  0  0
  3 19  1  0  0  0  0
  3 73  1  0  0  0  0
  4 21  1  0  0  0  0
  4 32  1  0  0  0  0
  5 29  1  0  0  0  0
  5 31  1  0  0  0  0
  6 31  1  0  0  0  0
  6 36  1  0  0  0  0
  7 28  2  0  0  0  0
  8 35  2  0  0  0  0
  9 42  1  0  0  0  0
  9 95  1  0  0  0  0
 10 43  1  0  0  0  0
 10 96  1  0  0  0  0
 11 44  1  0  0  0  0
 11 97  1  0  0  0  0
 12 49  2  0  0  0  0
 13 46  1  0  0  0  0
 13 49  1  0  0  0  0
 13 91  1  0  0  0  0
 14 15  1  0  0  0  0
 14 16  1  0  0  0  0
 14 20  1  0  0  0  0
 14 51  1  0  0  0  0
 15 17  1  0  0  0  0
 15 52  1  0  0  0  0
 16 18  1  0  0  0  0
 16 53  1  0  0  0  0
 17 19  1  0  0  0  0
 17 23  1  0  0  0  0
 17 54  1  0  0  0  0
 18 21  1  0  0  0  0
 18 24  1  0  0  0  0
 18 55  1  0  0  0  0
 19 22  1  0  0  0  0
 19 56  1  0  0  0  0
 20 57  1  0  0  0  0
 20 58  1  0  0  0  0
 20 59  1  0  0  0  0
 21 26  1  0  0  0  0
 21 60  1  0  0  0  0
 22 25  1  0  0  0  0
 22 27  1  0  0  0  0
 22 61  1  0  0  0  0
 23 62  1  0  0  0  0
 23 63  1  0  0  0  0
 23 64  1  0  0  0  0
 24 65  1  0  0  0  0
 24 66  1  0  0  0  0
 24 67  1  0  0  0  0
 25 69  1  0  0  0  0
 25 70  1  0  0  0  0
 25 71  1  0  0  0  0
 26 29  2  0  0  0  0
 26 72  1  0  0  0  0
 27 30  2  0  0  0  0
 27 74  1  0  0  0  0
 28 33  1  0  0  0  0
 29 75  1  0  0  0  0
 30 39  1  0  0  0  0
 30 76  1  0  0  0  0
 31 35  1  0  0  0  0
 31 38  1  0  0  0  0
 32 77  1  0  0  0  0
 32 78  1  0  0  0  0
 32 79  1  0  0  0  0
 33 80  1  0  0  0  0
 33 81  1  0  0  0  0
 33 82  1  0  0  0  0
 34 35  1  0  0  0  0
 34 36  2  0  0  0  0
 34 37  1  0  0  0  0
 36 40  1  0  0  0  0
 37 41  1  0  0  0  0
 37 43  2  0  0  0  0
 38 83  1  0  0  0  0
 38 84  1  0  0  0  0
 38 85  1  0  0  0  0
 39 45  2  0  0  0  0
 39 86  1  0  0  0  0
 40 42  2  0  0  0  0
 40 47  1  0  0  0  0
 41 42  1  0  0  0  0
 41 44  2  0  0  0  0
 43 48  1  0  0  0  0
 44 46  1  0  0  0  0
 45 49  1  0  0  0  0
 45 50  1  0  0  0  0
 46 48  2  0  0  0  0
 47 87  1  0  0  0  0
 47 88  1  0  0  0  0
 47 89  1  0  0  0  0
 48 90  1  0  0  0  0
 50 92  1  0  0  0  0
 50 93  1  0  0  0  0
 50 94  1  0  0  0  0
M  END
> <DATABASE_ID>
DB11753

> <DATABASE_NAME>
drugbank

> <ORIGINAL_SOURCE>
PUBCHEM

> <ORIGINAL_SOURCE_URL>
https://pubchem.ncbi.nlm.nih.gov/rest/pug/compound/inchikey/HJYYPODYNSCCOU-ODRIEIDWSA-N/SDF?record_type=3d

> <SMILES>
CO[C@H]1\C=C\O[C@@]2(C)OC3=C(C)C(O)=C4C(O)=C(NC(=O)\C(C)=C/C=C/[C@H](C)[C@H](O)[C@@H](C)[C@@H](O)[C@@H](C)[C@H](OC(C)=O)[C@@H]1C)C=C(O)C4=C3C2=O

> <INCHI_IDENTIFIER>
InChI=1S/C37H47NO12/c1-16-11-10-12-17(2)36(46)38-23-15-24(40)26-27(32(23)44)31(43)21(6)34-28(26)35(45)37(8,50-34)48-14-13-25(47-9)18(3)33(49-22(7)39)20(5)30(42)19(4)29(16)41/h10-16,18-20,25,29-30,33,40-44H,1-9H3,(H,38,46)/b11-10+,14-13+,17-12-/t16-,18+,19+,20+,25-,29-,30+,33+,37-/m0/s1

> <INCHI_KEY>
HJYYPODYNSCCOU-ODRIEIDWSA-N

> <FORMULA>
C37H47NO12

> <MOLECULAR_WEIGHT>
697.778

> <EXACT_MASS>
697.309825957

> <JCHEM_ACCEPTOR_COUNT>
11

> <JCHEM_ATOM_COUNT>
97

> <JCHEM_AVERAGE_NEUTRAL_MICROSPECIES_CHARGE>
-0.4798843557907934

> <JCHEM_AVERAGE_POLARIZABILITY>
72.60376935991462

> <JCHEM_BIOAVAILABILITY>
0

> <JCHEM_DONOR_COUNT>
6

> <JCHEM_FORMAL_CHARGE>
0

> <JCHEM_GHOSE_FILTER>
0

> <JCHEM_IUPAC>
(7S,9E,11S,12R,13S,14R,15R,16R,17S,18S,19E,21Z)-2,15,17,27,29-pentahydroxy-11-methoxy-3,7,12,14,16,18,22-heptamethyl-6,23-dioxo-8,30-dioxa-24-azatetracyclo[23.3.1.1^{4,7}.0^{5,28}]triaconta-1,3,5(28),9,19,21,25(29),26-octaen-13-yl acetate

> <ALOGPS_LOGP>
4.15

> <JCHEM_LOGP>
4.174343761666667

> <ALOGPS_LOGS>
-4.68

> <JCHEM_MDDR_LIKE_RULE>
0

> <JCHEM_NEUTRAL_CHARGE>
0

> <JCHEM_NUMBER_OF_RINGS>
4

> <JCHEM_PHYSIOLOGICAL_CHARGE>
-1

> <JCHEM_PKA>
8.531655338609067

> <JCHEM_PKA_STRONGEST_ACIDIC>
7.09175134467209

> <JCHEM_PKA_STRONGEST_BASIC>
-1.0787498224598797

> <JCHEM_POLAR_SURFACE_AREA>
201.30999999999997

> <JCHEM_REFRACTIVITY>
187.79820000000007

> <JCHEM_ROTATABLE_BOND_COUNT>
3

> <JCHEM_RULE_OF_FIVE>
0

> <ALOGPS_SOLUBILITY>
1.47e-02 g/l

> <JCHEM_TRADITIONAL_IUPAC>
(5Z,7E)-deca-5,7,9-trien-2-one

> <JCHEM_VEBER_RULE>
0

$$$$
65957
  -OEChem-10051722343D

 38 41  0     1  0  0  0  0  0999 V2000
   -2.5894    2.7942    0.2412 F   0  0  0  0  0  0  0  0  0  0  0  0
   -1.7439   -1.8470   -0.1236 O   0  0  0  0  0  0  0  0  0  0  0  0
    2.4468    2.4733    0.0075 O   0  0  0  0  0  0  0  0  0  0  0  0
    4.7865    1.4109    0.5384 O   0  0  0  0  0  0  0  0  0  0  0  0
    5.1758   -0.4864   -0.6777 O   0  0  0  0  0  0  0  0  0  0  0  0
   -4.1146   -0.1229    1.4568 N   0  0  0  0  0  0  0  0  0  0  0  0
    1.0884   -1.3632   -0.1152 N   0  0  0  0  0  0  0  0  0  0  0  0
   -3.6244    0.1912    0.1095 C   0  0  0  0  0  0  0  0  0  0  0  0
   -4.2441   -0.5001   -1.0643 C   0  0  0  0  0  0  0  0  0  0  0  0
   -4.5109    0.9567   -0.8222 C   0  0  0  0  0  0  0  0  0  0  0  0
   -2.1569    0.4669    0.0705 C   0  0  0  0  0  0  0  0  0  0  0  0
   -1.2338   -0.5740   -0.0453 C   0  0  0  0  0  0  0  0  0  0  0  0
    0.1456   -0.3173   -0.0550 C   0  0  0  0  0  0  0  0  0  0  0  0
   -1.7115    1.7859    0.1399 C   0  0  0  0  0  0  0  0  0  0  0  0
    0.5481   -2.7239   -0.0490 C   0  0  2  0  0  0  0  0  0  0  0  0
    0.5762    1.0217    0.0042 C   0  0  0  0  0  0  0  0  0  0  0  0
   -0.8207   -2.7566   -0.7303 C   0  0  0  0  0  0  0  0  0  0  0  0
   -0.3467    2.0687    0.1001 C   0  0  0  0  0  0  0  0  0  0  0  0
    2.4366   -1.0681   -0.1340 C   0  0  0  0  0  0  0  0  0  0  0  0
    2.0324    1.3215   -0.0275 C   0  0  0  0  0  0  0  0  0  0  0  0
    0.4779   -3.1910    1.4073 C   0  0  0  0  0  0  0  0  0  0  0  0
    2.9630    0.1627   -0.1015 C   0  0  0  0  0  0  0  0  0  0  0  0
    4.4197    0.2968   -0.1299 C   0  0  0  0  0  0  0  0  0  0  0  0
   -5.0589   -1.1941   -0.8918 H   0  0  0  0  0  0  0  0  0  0  0  0
   -3.6368   -0.7517   -1.9264 H   0  0  0  0  0  0  0  0  0  0  0  0
   -4.0859    1.6545   -1.5346 H   0  0  0  0  0  0  0  0  0  0  0  0
   -5.5044    1.2348   -0.4884 H   0  0  0  0  0  0  0  0  0  0  0  0
   -3.7260   -1.0096    1.7767 H   0  0  0  0  0  0  0  0  0  0  0  0
   -5.1267   -0.2455    1.4590 H   0  0  0  0  0  0  0  0  0  0  0  0
    1.2103   -3.4081   -0.5952 H   0  0  0  0  0  0  0  0  0  0  0  0
   -0.7391   -2.5175   -1.7992 H   0  0  0  0  0  0  0  0  0  0  0  0
   -1.2555   -3.7598   -0.6593 H   0  0  0  0  0  0  0  0  0  0  0  0
   -0.0230    3.1044    0.1510 H   0  0  0  0  0  0  0  0  0  0  0  0
    3.0579   -1.9573   -0.1716 H   0  0  0  0  0  0  0  0  0  0  0  0
   -0.1524   -2.5380    2.0205 H   0  0  0  0  0  0  0  0  0  0  0  0
    0.0730   -4.2065    1.4674 H   0  0  0  0  0  0  0  0  0  0  0  0
    1.4755   -3.2002    1.8598 H   0  0  0  0  0  0  0  0  0  0  0  0
    5.7596    1.5355    0.5412 H   0  0  0  0  0  0  0  0  0  0  0  0
  1 14  1  0  0  0  0
  2 12  1  0  0  0  0
  2 17  1  0  0  0  0
  3 20  2  0  0  0  0
  4 23  1  0  0  0  0
  4 38  1  0  0  0  0
  5 23  2  0  0  0  0
  6  8  1  0  0  0  0
  6 28  1  0  0  0  0
  6 29  1  0  0  0  0
  7 13  1  0  0  0  0
  7 15  1  0  0  0  0
  7 19  1  0  0  0  0
  8  9  1  0  0  0  0
  8 10  1  0  0  0  0
  8 11  1  0  0  0  0
  9 10  1  0  0  0  0
  9 24  1  0  0  0  0
  9 25  1  0  0  0  0
 10 26  1  0  0  0  0
 10 27  1  0  0  0  0
 11 12  1  0  0  0  0
 11 14  2  0  0  0  0
 12 13  2  0  0  0  0
 13 16  1  0  0  0  0
 14 18  1  0  0  0  0
 15 17  1  0  0  0  0
 15 21  1  0  0  0  0
 15 30  1  0  0  0  0
 16 18  2  0  0  0  0
 16 20  1  0  0  0  0
 17 31  1  0  0  0  0
 17 32  1  0  0  0  0
 18 33  1  0  0  0  0
 19 22  2  0  0  0  0
 19 34  1  0  0  0  0
 20 22  1  0  0  0  0
 21 35  1  0  0  0  0
 21 36  1  0  0  0  0
 21 37  1  0  0  0  0
 22 23  1  0  0  0  0
M  END
> <DATABASE_ID>
DB11774

> <DATABASE_NAME>
drugbank

> <ORIGINAL_SOURCE>
PUBCHEM

> <ORIGINAL_SOURCE_URL>
https://pubchem.ncbi.nlm.nih.gov/rest/pug/compound/inchikey/XAGMUUZPGZWTRP-ZETCQYMHSA-N/SDF?record_type=3d

> <SMILES>
[H][C@]1(C)COC2=C3N1C=C(C(O)=O)C(=O)C3=CC(F)=C2C1(N)CC1

> <INCHI_IDENTIFIER>
InChI=1S/C16H15FN2O4/c1-7-6-23-14-11(16(18)2-3-16)10(17)4-8-12(14)19(7)5-9(13(8)20)15(21)22/h4-5,7H,2-3,6,18H2,1H3,(H,21,22)/t7-/m0/s1

> <INCHI_KEY>
XAGMUUZPGZWTRP-ZETCQYMHSA-N

> <FORMULA>
C16H15FN2O4

> <MOLECULAR_WEIGHT>
318.304

> <EXACT_MASS>
318.101585134

> <JCHEM_ACCEPTOR_COUNT>
6

> <JCHEM_ATOM_COUNT>
38

> <JCHEM_AVERAGE_POLARIZABILITY>
30.763427096528766

> <JCHEM_BIOAVAILABILITY>
1

> <JCHEM_DONOR_COUNT>
2

> <JCHEM_FORMAL_CHARGE>
0

> <JCHEM_GHOSE_FILTER>
0

> <JCHEM_IUPAC>
(2S)-6-(1-aminocyclopropyl)-7-fluoro-2-methyl-10-oxo-4-oxa-1-azatricyclo[7.3.1.0⁵,¹³]trideca-5(13),6,8,11-tetraene-11-carboxylic acid

> <ALOGPS_LOGP>
-0.51

> <JCHEM_LOGP>
-1.0095917023648966

> <ALOGPS_LOGS>
-2.12

> <JCHEM_MDDR_LIKE_RULE>
0

> <JCHEM_NUMBER_OF_RINGS>
4

> <JCHEM_PHYSIOLOGICAL_CHARGE>
0

> <JCHEM_PKA_STRONGEST_ACIDIC>
5.585554546935236

> <JCHEM_PKA_STRONGEST_BASIC>
8.158173520156941

> <JCHEM_POLAR_SURFACE_AREA>
92.86

> <JCHEM_REFRACTIVITY>
80.0314

> <JCHEM_ROTATABLE_BOND_COUNT>
2

> <JCHEM_RULE_OF_FIVE>
1

> <ALOGPS_SOLUBILITY>
2.41e+00 g/l

> <JCHEM_TRADITIONAL_IUPAC>
pazufloxacin

> <JCHEM_VEBER_RULE>
0

$$$$
65947
  -OEChem-10051722363D

 52 56  0     1  0  0  0  0  0999 V2000
    4.7106    3.0769   -0.1651 S   0  0  0  0  0  0  0  0  0  0  0  0
    0.4375   -3.4431    0.1297 F   0  0  0  0  0  0  0  0  0  0  0  0
   -5.6682    1.0849    0.7613 O   0  0  0  0  0  0  0  0  0  0  0  0
    5.3161   -2.0712   -0.2319 O   0  0  0  0  0  0  0  0  0  0  0  0
   -7.2084    1.4794   -0.9391 O   0  0  0  0  0  0  0  0  0  0  0  0
    7.3360   -0.5209   -1.0156 O   0  0  0  0  0  0  0  0  0  0  0  0
    7.3899    1.4580    0.1294 O   0  0  0  0  0  0  0  0  0  0  0  0
   -6.5469    3.1809    0.4504 O   0  0  0  0  0  0  0  0  0  0  0  0
   -1.0012   -1.0773    0.2474 N   0  0  0  0  0  0  0  0  0  0  0  0
   -3.8231   -0.9472    0.6705 N   0  0  0  0  0  0  0  0  0  0  0  0
    3.2247    1.3354   -0.0583 N   0  0  0  0  0  0  0  0  0  0  0  0
   -1.7801    0.0234   -0.3281 C   0  0  0  0  0  0  0  0  0  0  0  0
   -1.6024   -1.7401    1.4116 C   0  0  0  0  0  0  0  0  0  0  0  0
   -3.2303   -0.4081   -0.5594 C   0  0  0  0  0  0  0  0  0  0  0  0
   -3.0578   -2.1154    1.1234 C   0  0  0  0  0  0  0  0  0  0  0  0
    0.3943   -1.0685    0.1437 C   0  0  0  0  0  0  0  0  0  0  0  0
    2.4681    0.1607   -0.0061 C   0  0  0  0  0  0  0  0  0  0  0  0
    2.9386    2.7172   -0.0316 C   0  0  1  0  0  0  0  0  0  0  0  0
    4.5192    1.3632   -0.1566 C   0  0  0  0  0  0  0  0  0  0  0  0
   -5.2238   -1.3056    0.4508 C   0  0  0  0  0  0  0  0  0  0  0  0
    1.0768    0.1486    0.0982 C   0  0  0  0  0  0  0  0  0  0  0  0
    3.1715   -1.0640   -0.0643 C   0  0  0  0  0  0  0  0  0  0  0  0
    1.0956   -2.2754    0.0858 C   0  0  0  0  0  0  0  0  0  0  0  0
    5.3408    0.3061   -0.2230 C   0  0  0  0  0  0  0  0  0  0  0  0
    2.4870   -2.2790   -0.0182 C   0  0  0  0  0  0  0  0  0  0  0  0
    4.6673   -1.0333   -0.1775 C   0  0  0  0  0  0  0  0  0  0  0  0
    2.3900    3.1571    1.3029 C   0  0  0  0  0  0  0  0  0  0  0  0
   -5.9324   -0.0631    0.0414 C   0  0  0  0  0  0  0  0  0  0  0  0
   -6.8031    0.1599   -0.9198 C   0  0  0  0  0  0  0  0  0  0  0  0
    6.7810    0.5044   -0.3315 C   0  0  0  0  0  0  0  0  0  0  0  0
   -7.3873   -0.7475   -1.9366 C   0  0  0  0  0  0  0  0  0  0  0  0
   -6.4798    2.0037    0.1163 C   0  0  0  0  0  0  0  0  0  0  0  0
   -1.7586    0.8899    0.3454 H   0  0  0  0  0  0  0  0  0  0  0  0
   -1.3598    0.3314   -1.2939 H   0  0  0  0  0  0  0  0  0  0  0  0
   -1.0650   -2.6507    1.6965 H   0  0  0  0  0  0  0  0  0  0  0  0
   -1.5546   -1.0608    2.2730 H   0  0  0  0  0  0  0  0  0  0  0  0
   -3.7494    0.4799   -0.9348 H   0  0  0  0  0  0  0  0  0  0  0  0
   -3.2607   -1.1594   -1.3610 H   0  0  0  0  0  0  0  0  0  0  0  0
   -3.0881   -2.9157    0.3716 H   0  0  0  0  0  0  0  0  0  0  0  0
   -3.4970   -2.5161    2.0450 H   0  0  0  0  0  0  0  0  0  0  0  0
    2.3425    3.0434   -0.8911 H   0  0  0  0  0  0  0  0  0  0  0  0
   -5.3255   -2.0978   -0.2998 H   0  0  0  0  0  0  0  0  0  0  0  0
   -5.6698   -1.6676    1.3848 H   0  0  0  0  0  0  0  0  0  0  0  0
    0.5425    1.0922    0.1440 H   0  0  0  0  0  0  0  0  0  0  0  0
    3.0131   -3.2279   -0.0620 H   0  0  0  0  0  0  0  0  0  0  0  0
    2.9523    2.7564    2.1553 H   0  0  0  0  0  0  0  0  0  0  0  0
    2.3993    4.2503    1.3842 H   0  0  0  0  0  0  0  0  0  0  0  0
    1.3472    2.8472    1.4250 H   0  0  0  0  0  0  0  0  0  0  0  0
   -7.0276   -1.7747   -1.8300 H   0  0  0  0  0  0  0  0  0  0  0  0
   -7.1304   -0.4034   -2.9433 H   0  0  0  0  0  0  0  0  0  0  0  0
   -8.4781   -0.7641   -1.8470 H   0  0  0  0  0  0  0  0  0  0  0  0
    8.3073   -0.4191   -1.1074 H   0  0  0  0  0  0  0  0  0  0  0  0
  1 18  1  0  0  0  0
  1 19  1  0  0  0  0
  2 23  1  0  0  0  0
  3 28  1  0  0  0  0
  3 32  1  0  0  0  0
  4 26  2  0  0  0  0
  5 29  1  0  0  0  0
  5 32  1  0  0  0  0
  6 30  1  0  0  0  0
  6 52  1  0  0  0  0
  7 30  2  0  0  0  0
  8 32  2  0  0  0  0
  9 12  1  0  0  0  0
  9 13  1  0  0  0  0
  9 16  1  0  0  0  0
 10 14  1  0  0  0  0
 10 15  1  0  0  0  0
 10 20  1  0  0  0  0
 11 17  1  0  0  0  0
 11 18  1  0  0  0  0
 11 19  1  0  0  0  0
 12 14  1  0  0  0  0
 12 33  1  0  0  0  0
 12 34  1  0  0  0  0
 13 15  1  0  0  0  0
 13 35  1  0  0  0  0
 13 36  1  0  0  0  0
 14 37  1  0  0  0  0
 14 38  1  0  0  0  0
 15 39  1  0  0  0  0
 15 40  1  0  0  0  0
 16 21  1  0  0  0  0
 16 23  2  0  0  0  0
 17 21  2  0  0  0  0
 17 22  1  0  0  0  0
 18 27  1  0  0  0  0
 18 41  1  0  0  0  0
 19 24  2  0  0  0  0
 20 28  1  0  0  0  0
 20 42  1  0  0  0  0
 20 43  1  0  0  0  0
 21 44  1  0  0  0  0
 22 25  2  0  0  0  0
 22 26  1  0  0  0  0
 23 25  1  0  0  0  0
 24 26  1  0  0  0  0
 24 30  1  0  0  0  0
 25 45  1  0  0  0  0
 27 46  1  0  0  0  0
 27 47  1  0  0  0  0
 27 48  1  0  0  0  0
 28 29  2  0  0  0  0
 29 31  1  0  0  0  0
 31 49  1  0  0  0  0
 31 50  1  0  0  0  0
 31 51  1  0  0  0  0
M  END
> <DATABASE_ID>
DB11892

> <DATABASE_NAME>
drugbank

> <ORIGINAL_SOURCE>
PUBCHEM

> <ORIGINAL_SOURCE_URL>
https://pubchem.ncbi.nlm.nih.gov/rest/pug/compound/inchikey/PWNMXPDKBYZCOO-UHFFFAOYSA-N/SDF?record_type=3d

> <SMILES>
CC1SC2=C(C(O)=O)C(=O)C3=CC(F)=C(C=C3N12)N1CCN(CC2=C(C)OC(=O)O2)CC1

> <INCHI_IDENTIFIER>
InChI=1S/C21H20FN3O6S/c1-10-16(31-21(29)30-10)9-23-3-5-24(6-4-23)15-8-14-12(7-13(15)22)18(26)17(20(27)28)19-25(14)11(2)32-19/h7-8,11H,3-6,9H2,1-2H3,(H,27,28)

> <INCHI_KEY>
PWNMXPDKBYZCOO-UHFFFAOYSA-N

> <FORMULA>
C21H20FN3O6S

> <MOLECULAR_WEIGHT>
461.46

> <EXACT_MASS>
461.105684713

> <JCHEM_ACCEPTOR_COUNT>
8

> <JCHEM_ATOM_COUNT>
52

> <JCHEM_AVERAGE_POLARIZABILITY>
44.944541727204026

> <JCHEM_BIOAVAILABILITY>
1

> <JCHEM_DONOR_COUNT>
1

> <JCHEM_FORMAL_CHARGE>
0

> <JCHEM_GHOSE_FILTER>
1

> <JCHEM_IUPAC>
6-fluoro-1-methyl-7-{4-[(5-methyl-2-oxo-2H-1,3-dioxol-4-yl)methyl]piperazin-1-yl}-4-oxo-1H,4H-[1,3]thiazeto[3,2-a]quinoline-3-carboxylic acid

> <ALOGPS_LOGP>
1.77

> <JCHEM_LOGP>
2.493977008178067

> <ALOGPS_LOGS>
-2.89

> <JCHEM_MDDR_LIKE_RULE>
0

> <JCHEM_NUMBER_OF_RINGS>
5

> <JCHEM_PHYSIOLOGICAL_CHARGE>
-1

> <JCHEM_PKA>
10.896677654080264

> <JCHEM_PKA_STRONGEST_ACIDIC>
6.028546900007003

> <JCHEM_PKA_STRONGEST_BASIC>
5.163019608969104

> <JCHEM_POLAR_SURFACE_AREA>
99.62

> <JCHEM_REFRACTIVITY>
127.36879999999998

> <JCHEM_ROTATABLE_BOND_COUNT>
4

> <JCHEM_RULE_OF_FIVE>
1

> <ALOGPS_SOLUBILITY>
5.93e-01 g/l

> <JCHEM_TRADITIONAL_IUPAC>
prulifloxacin

> <JCHEM_VEBER_RULE>
0

$$$$
487101
  -OEChem-10051722373D

 42 45  0     0  0  0  0  0  0999 V2000
    1.3485    1.6272   -0.2405 Cl  0  0  0  0  0  0  0  0  0  0  0  0
    3.4475   -2.9314    0.0515 F   0  0  0  0  0  0  0  0  0  0  0  0
   -1.5782    1.2410    2.3812 F   0  0  0  0  0  0  0  0  0  0  0  0
   -1.7231    5.4757    0.2635 F   0  0  0  0  0  0  0  0  0  0  0  0
    6.7064    0.5658    0.3707 O   0  0  0  0  0  0  0  0  0  0  0  0
   -1.4291   -4.1156    0.0891 O   0  0  0  0  0  0  0  0  0  0  0  0
   -3.9127   -3.8846   -0.7538 O   0  0  0  0  0  0  0  0  0  0  0  0
   -4.9779   -2.1460    0.2822 O   0  0  0  0  0  0  0  0  0  0  0  0
    3.5970   -0.2122   -0.1114 N   0  0  0  0  0  0  0  0  0  0  0  0
   -1.3417   -0.0164   -0.0631 N   0  0  0  0  0  0  0  0  0  0  0  0
   -1.4167    2.1364   -1.1369 N   0  0  0  0  0  0  0  0  0  0  0  0
   -1.4911    4.2698   -2.1900 N   0  0  0  0  0  0  0  0  0  0  0  0
    5.4014    0.7365   -0.2271 C   0  0  0  0  0  0  0  0  0  0  0  0
    4.2197    0.7363    0.7477 C   0  0  0  0  0  0  0  0  0  0  0  0
    4.7803   -0.5235   -0.8381 C   0  0  0  0  0  0  0  0  0  0  0  0
    2.3417   -0.8337   -0.0613 C   0  0  0  0  0  0  0  0  0  0  0  0
    1.1504   -0.1025   -0.0938 C   0  0  0  0  0  0  0  0  0  0  0  0
   -0.1015   -0.7422   -0.0317 C   0  0  0  0  0  0  0  0  0  0  0  0
    2.3105   -2.2214    0.0200 C   0  0  0  0  0  0  0  0  0  0  0  0
   -0.1070   -2.1535    0.0205 C   0  0  0  0  0  0  0  0  0  0  0  0
    1.0880   -2.8855    0.0553 C   0  0  0  0  0  0  0  0  0  0  0  0
   -1.3928   -2.8938    0.0144 C   0  0  0  0  0  0  0  0  0  0  0  0
   -2.5201   -0.7574   -0.1242 C   0  0  0  0  0  0  0  0  0  0  0  0
   -2.6315   -2.0905   -0.0952 C   0  0  0  0  0  0  0  0  0  0  0  0
   -1.4412    1.4115    0.0119 C   0  0  0  0  0  0  0  0  0  0  0  0
   -1.5580    1.9912    1.2720 C   0  0  0  0  0  0  0  0  0  0  0  0
   -3.9714   -2.6777   -0.1522 C   0  0  0  0  0  0  0  0  0  0  0  0
   -1.6541    3.3757    1.3572 C   0  0  0  0  0  0  0  0  0  0  0  0
   -1.5122    3.4793   -1.0146 C   0  0  0  0  0  0  0  0  0  0  0  0
   -1.6316    4.1413    0.1968 C   0  0  0  0  0  0  0  0  0  0  0  0
    5.3993    1.5924   -0.9138 H   0  0  0  0  0  0  0  0  0  0  0  0
    4.4292    0.3175    1.7376 H   0  0  0  0  0  0  0  0  0  0  0  0
    3.7340    1.7050    0.8557 H   0  0  0  0  0  0  0  0  0  0  0  0
    4.6399   -0.5000   -1.9215 H   0  0  0  0  0  0  0  0  0  0  0  0
    5.2464   -1.4637   -0.5310 H   0  0  0  0  0  0  0  0  0  0  0  0
    6.8768    1.4015    0.8377 H   0  0  0  0  0  0  0  0  0  0  0  0
    1.0850   -3.9710    0.1012 H   0  0  0  0  0  0  0  0  0  0  0  0
   -3.4040   -0.1278   -0.1927 H   0  0  0  0  0  0  0  0  0  0  0  0
   -1.7459    3.8569    2.3260 H   0  0  0  0  0  0  0  0  0  0  0  0
   -4.7941   -4.3113   -0.8108 H   0  0  0  0  0  0  0  0  0  0  0  0
   -1.9638    5.1651   -2.1758 H   0  0  0  0  0  0  0  0  0  0  0  0
   -1.4120    3.7809   -3.0729 H   0  0  0  0  0  0  0  0  0  0  0  0
  1 17  1  0  0  0  0
  2 19  1  0  0  0  0
  3 26  1  0  0  0  0
  4 30  1  0  0  0  0
  5 13  1  0  0  0  0
  5 36  1  0  0  0  0
  6 22  2  0  0  0  0
  7 27  1  0  0  0  0
  7 40  1  0  0  0  0
  8 27  2  0  0  0  0
  9 14  1  0  0  0  0
  9 15  1  0  0  0  0
  9 16  1  0  0  0  0
 10 18  1  0  0  0  0
 10 23  1  0  0  0  0
 10 25  1  0  0  0  0
 11 25  1  0  0  0  0
 11 29  2  0  0  0  0
 12 29  1  0  0  0  0
 12 41  1  0  0  0  0
 12 42  1  0  0  0  0
 13 14  1  0  0  0  0
 13 15  1  0  0  0  0
 13 31  1  0  0  0  0
 14 32  1  0  0  0  0
 14 33  1  0  0  0  0
 15 34  1  0  0  0  0
 15 35  1  0  0  0  0
 16 17  1  0  0  0  0
 16 19  2  0  0  0  0
 17 18  2  0  0  0  0
 18 20  1  0  0  0  0
 19 21  1  0  0  0  0
 20 21  2  0  0  0  0
 20 22  1  0  0  0  0
 21 37  1  0  0  0  0
 22 24  1  0  0  0  0
 23 24  2  0  0  0  0
 23 38  1  0  0  0  0
 24 27  1  0  0  0  0
 25 26  2  0  0  0  0
 26 28  1  0  0  0  0
 28 30  2  0  0  0  0
 28 39  1  0  0  0  0
 29 30  1  0  0  0  0
M  END
> <DATABASE_ID>
DB11943

> <DATABASE_NAME>
drugbank

> <ORIGINAL_SOURCE>
PUBCHEM

> <ORIGINAL_SOURCE_URL>
https://pubchem.ncbi.nlm.nih.gov/rest/pug/compound/inchikey/DYDCPNMLZGFQTM-UHFFFAOYSA-N/SDF?record_type=3d

> <SMILES>
NC1=NC(N2C=C(C(O)=O)C(=O)C3=CC(F)=C(N4CC(O)C4)C(Cl)=C23)=C(F)C=C1F

> <INCHI_IDENTIFIER>
InChI=1S/C18H12ClF3N4O4/c19-12-13-7(1-9(20)14(12)25-3-6(27)4-25)15(28)8(18(29)30)5-26(13)17-11(22)2-10(21)16(23)24-17/h1-2,5-6,27H,3-4H2,(H2,23,24)(H,29,30)

> <INCHI_KEY>
DYDCPNMLZGFQTM-UHFFFAOYSA-N

> <FORMULA>
C18H12ClF3N4O4

> <MOLECULAR_WEIGHT>
440.76

> <EXACT_MASS>
440.0499171

> <JCHEM_ACCEPTOR_COUNT>
8

> <JCHEM_ATOM_COUNT>
42

> <JCHEM_AVERAGE_POLARIZABILITY>
38.42258860869022

> <JCHEM_BIOAVAILABILITY>
1

> <JCHEM_DONOR_COUNT>
3

> <JCHEM_FORMAL_CHARGE>
0

> <JCHEM_GHOSE_FILTER>
1

> <JCHEM_IUPAC>
1-(6-amino-3,5-difluoropyridin-2-yl)-8-chloro-6-fluoro-7-(3-hydroxyazetidin-1-yl)-4-oxo-1,4-dihydroquinoline-3-carboxylic acid

> <ALOGPS_LOGP>
1.67

> <JCHEM_LOGP>
2.558647892

> <ALOGPS_LOGS>
-3.80

> <JCHEM_MDDR_LIKE_RULE>
0

> <JCHEM_NUMBER_OF_RINGS>
4

> <JCHEM_PHYSIOLOGICAL_CHARGE>
-1

> <JCHEM_PKA>
14.765368190007475

> <JCHEM_PKA_STRONGEST_ACIDIC>
5.61770320158003

> <JCHEM_PKA_STRONGEST_BASIC>
-1.3271392739960501

> <JCHEM_POLAR_SURFACE_AREA>
119.99

> <JCHEM_REFRACTIVITY>
101.3287

> <JCHEM_ROTATABLE_BOND_COUNT>
3

> <JCHEM_RULE_OF_FIVE>
1

> <ALOGPS_SOLUBILITY>
6.99e-02 g/l

> <JCHEM_TRADITIONAL_IUPAC>
delafloxacin

> <JCHEM_VEBER_RULE>
0

$$$$

  Mrv1909 12181903342D          

 37 40  0  0  0  0            999 V2000
   -2.1432    1.4290    0.0000 C   0  0  0  0  0  0  0  0  0  0  0  0
   -2.8577    1.0165    0.0000 C   0  0  0  0  0  0  0  0  0  0  0  0
   -2.8577    0.1915    0.0000 C   0  0  0  0  0  0  0  0  0  0  0  0
   -2.1433   -0.2209    0.0000 C   0  0  0  0  0  0  0  0  0  0  0  0
   -1.4289    0.1915    0.0000 C   0  0  0  0  0  0  0  0  0  0  0  0
   -1.4289    1.0165    0.0000 C   0  0  0  0  0  0  0  0  0  0  0  0
   -0.7143    1.4290    0.0000 C   0  0  0  0  0  0  0  0  0  0  0  0
   -0.7144   -0.2209    0.0000 C   0  0  0  0  0  0  0  0  0  0  0  0
    0.0000    0.1914    0.0000 C   0  0  2  0  0  0  0  0  0  0  0  0
    0.0000    1.0164    0.0000 C   0  0  0  0  0  0  0  0  0  0  0  0
    0.7145    1.4289    0.0000 C   0  0  0  0  0  0  0  0  0  0  0  0
    0.7144   -0.2210    0.0000 C   0  0  0  0  0  0  0  0  0  0  0  0
    1.4289    0.2209    0.0000 C   0  0  2  0  0  0  0  0  0  0  0  0
    1.4289    1.0459    0.0000 C   0  0  1  0  0  0  0  0  0  0  0  0
    2.1435    1.4584    0.0000 C   0  0  0  0  0  0  0  0  0  0  0  0
    2.1434   -0.1916    0.0000 C   0  0  1  0  0  0  0  0  0  0  0  0
    2.8577    0.2208    0.0000 C   0  0  0  0  0  0  0  0  0  0  0  0
    2.8577    1.0458    0.0000 C   0  0  0  0  0  0  0  0  0  0  0  0
   -2.1432    2.2540    0.0000 O   0  0  0  0  0  0  0  0  0  0  0  0
   -0.7143    2.2540    0.0000 O   0  0  0  0  0  0  0  0  0  0  0  0
    0.7145    2.2539    0.0000 O   0  0  0  0  0  0  0  0  0  0  0  0
    2.1435    2.2834    0.0000 O   0  0  0  0  0  0  0  0  0  0  0  0
    3.5723    1.4583    0.0000 C   0  0  0  0  0  0  0  0  0  0  0  0
    3.5723    2.2833    0.0000 O   0  0  0  0  0  0  0  0  0  0  0  0
    4.2867    1.0458    0.0000 N   0  0  0  0  0  0  0  0  0  0  0  0
    3.5722   -0.1916    0.0000 O   0  0  0  0  0  0  0  0  0  0  0  0
    2.1434   -1.0166    0.0000 N   0  0  0  0  0  0  0  0  0  0  0  0
    2.8577   -1.4292    0.0000 C   0  0  0  0  0  0  0  0  0  0  0  0
    1.4289   -1.4291    0.0000 C   0  0  0  0  0  0  0  0  0  0  0  0
    1.4289   -0.6040    0.0000 H   0  0  0  0  0  0  0  0  0  0  0  0
    0.0000   -0.6335    0.0000 H   0  0  0  0  0  0  0  0  0  0  0  0
   -2.1433   -1.0459    0.0000 C   0  0  0  0  0  0  0  0  0  0  0  0
   -2.8577   -1.4584    0.0000 N   0  0  0  0  0  0  0  0  0  0  0  0
   -3.5722   -1.0459    0.0000 O   0  0  0  0  0  0  0  0  0  0  0  0
   -4.2867   -1.4583    0.0000 C   0  0  0  0  0  0  0  0  0  0  0  0
   -2.8577   -2.2834    0.0000 C   0  0  0  0  0  0  0  0  0  0  0  0
    1.4290    1.8708    0.0000 O   0  0  0  0  0  0  0  0  0  0  0  0
  1  2  1  0  0  0  0
  2  3  2  0  0  0  0
  3  4  1  0  0  0  0
  4  5  2  0  0  0  0
  1  6  2  0  0  0  0
  7  6  1  0  0  0  0
  6  5  1  0  0  0  0
  5  8  1  0  0  0  0
  8  9  1  0  0  0  0
  7 10  1  0  0  0  0
 11 10  2  0  0  0  0
 10  9  1  0  0  0  0
  9 12  1  0  0  0  0
 12 13  1  0  0  0  0
 11 14  1  0  0  0  0
 15 14  1  0  0  0  0
 14 13  1  0  0  0  0
 13 16  1  0  0  0  0
 16 17  1  0  0  0  0
 17 18  2  0  0  0  0
 15 18  1  0  0  0  0
  1 19  1  0  0  0  0
  7 20  2  0  0  0  0
 11 21  1  0  0  0  0
 15 22  2  0  0  0  0
 18 23  1  0  0  0  0
 23 24  2  0  0  0  0
 23 25  1  0  0  0  0
 17 26  1  0  0  0  0
 16 27  1  1  0  0  0
 27 28  1  0  0  0  0
 27 29  1  0  0  0  0
 13 30  1  1  0  0  0
  9 31  1  1  0  0  0
  4 32  1  0  0  0  0
 32 33  1  0  0  0  0
 33 34  1  0  0  0  0
 34 35  1  0  0  0  0
 33 36  1  0  0  0  0
 14 37  1  1  0  0  0
M  END
> <DATABASE_ID>
DB12035

> <DATABASE_NAME>
drugbank

> <SMILES>
[H][C@@]12CC3=C(CN(C)OC)C=CC(O)=C3C(=O)C1=C(O)[C@]1(O)C(=O)C(C(N)=O)=C(O)[C@@H](N(C)C)[C@]1([H])C2

> <INCHI_IDENTIFIER>
InChI=1S/C24H29N3O8/c1-26(2)18-13-8-11-7-12-10(9-27(3)35-4)5-6-14(28)16(12)19(29)15(11)21(31)24(13,34)22(32)17(20(18)30)23(25)33/h5-6,11,13,18,28,30-31,34H,7-9H2,1-4H3,(H2,25,33)/t11-,13-,18-,24-/m0/s1

> <INCHI_KEY>
PQJQFLNBMSCUSH-SBAJWEJLSA-N

> <FORMULA>
C24H29N3O8

> <MOLECULAR_WEIGHT>
487.509

> <EXACT_MASS>
487.195464906

> <JCHEM_ACCEPTOR_COUNT>
10

> <JCHEM_ATOM_COUNT>
64

> <JCHEM_AVERAGE_NEUTRAL_MICROSPECIES_CHARGE>
-0.2924061506730845

> <JCHEM_AVERAGE_POLARIZABILITY>
49.313123596887635

> <JCHEM_BIOAVAILABILITY>
1

> <JCHEM_DONOR_COUNT>
5

> <JCHEM_FORMAL_CHARGE>
0

> <JCHEM_GHOSE_FILTER>
0

> <JCHEM_IUPAC>
(4S,4aS,5aR,12aS)-4-(dimethylamino)-3,10,12,12a-tetrahydroxy-7-{[methoxy(methyl)amino]methyl}-1,11-dioxo-1,4,4a,5,5a,6,11,12a-octahydrotetracene-2-carboxamide

> <ALOGPS_LOGP>
-0.17

> <JCHEM_LOGP>
-3.0651520566519834

> <ALOGPS_LOGS>
-2.39

> <JCHEM_MDDR_LIKE_RULE>
0

> <JCHEM_NEUTRAL_CHARGE>
0

> <JCHEM_NUMBER_OF_RINGS>
4

> <JCHEM_PHYSIOLOGICAL_CHARGE>
0

> <JCHEM_PKA>
7.445707368481895

> <JCHEM_PKA_STRONGEST_ACIDIC>
3.305013701653303

> <JCHEM_PKA_STRONGEST_BASIC>
8.68717913071451

> <JCHEM_POLAR_SURFACE_AREA>
173.85999999999999

> <JCHEM_REFRACTIVITY>
127.60649999999994

> <JCHEM_ROTATABLE_BOND_COUNT>
5

> <JCHEM_RULE_OF_FIVE>
1

> <ALOGPS_SOLUBILITY>
2.01e+00 g/l

> <JCHEM_TRADITIONAL_IUPAC>
5-(2,4-dihydroxy-5-isopropylphenyl)-4-(1-methylindol-5-yl)-2H-1,2,4-triazol-3-one

> <JCHEM_VEBER_RULE>
0

> <DRUGBANK_ID>
DB12035

> <DRUG_GROUPS>
approved; investigational

> <GENERIC_NAME>
Sarecycline

> <SYNONYMS>
Sareciclina; Sarecycline; Sarécycline; Sarecyclinum

> <PRODUCTS>
Seysara

> <SALTS>
Sarecycline hydrochloride

$$$$
444022
  -OEChem-02212014233D

 70 74  0     1  0  0  0  0  0999 V2000
   -6.1117    1.9850    1.0571 S   0  0  0  0  0  0  0  0  0  0  0  0
    2.7266    0.3004    1.0009 S   0  0  0  0  0  0  0  0  0  0  0  0
   -5.7682    3.3867    1.1951 O   0  0  0  0  0  0  0  0  0  0  0  0
   -6.9754    1.3402    2.0287 O   0  0  0  0  0  0  0  0  0  0  0  0
   -7.7002   -1.4478   -1.0428 O   0  0  0  0  0  0  0  0  0  0  0  0
   -3.4222   -1.8207   -0.3558 O   0  0  0  0  0  0  0  0  0  0  0  0
   -3.8437   -0.3203   -2.0618 O   0  0  0  0  0  0  0  0  0  0  0  0
   -1.1456   -1.8321   -1.1249 O   0  0  0  0  0  0  0  0  0  0  0  0
    2.8519   -3.5383   -1.1579 O   0  0  0  0  0  0  0  0  0  0  0  0
   -0.6769   -2.7442    0.9457 O   0  0  0  0  0  0  0  0  0  0  0  0
    6.1063   -0.6950    1.9104 O   0  0  0  0  0  0  0  0  0  0  0  0
   -6.1589    0.3170   -0.7743 N   0  0  0  0  0  0  0  0  0  0  0  0
    1.9343   -2.1153    0.4862 N   0  0  0  0  0  0  0  0  0  0  0  0
    5.0228   -1.5084    0.0286 N   0  0  0  0  0  0  0  0  0  0  0  0
    8.2866   -0.0314    0.3490 N   0  0  0  0  0  0  0  0  0  0  0  0
   -4.5631    0.9869    0.8828 C   0  0  0  0  0  0  0  0  0  0  0  0
   -6.7060    1.6712   -0.5976 C   0  0  1  0  0  0  0  0  0  0  0  0
   -5.0503   -0.1881    0.0130 C   0  0  2  0  0  0  0  0  0  0  0  0
   -8.0930    1.0665   -0.8448 C   0  0  0  0  0  0  0  0  0  0  0  0
   -7.3662   -0.2879   -0.9565 C   0  0  0  0  0  0  0  0  0  0  0  0
   -4.0824    0.5218    2.2579 C   0  0  0  0  0  0  0  0  0  0  0  0
   -3.4811    1.8500    0.2153 C   0  0  0  0  0  0  0  0  0  0  0  0
    2.8647   -1.4754    1.4209 C   0  0  1  0  0  0  0  0  0  0  0  0
   -4.0478   -0.7584   -0.9378 C   0  0  0  0  0  0  0  0  0  0  0  0
    0.9117   -1.3098   -0.1500 C   0  0  2  0  0  0  0  0  0  0  0  0
    0.9424    0.0852    0.5108 C   0  0  0  0  0  0  0  0  0  0  0  0
    3.9912   -2.2619    0.7368 C   0  0  1  0  0  0  0  0  0  0  0  0
    2.8866   -2.8401   -0.1702 C   0  0  0  0  0  0  0  0  0  0  0  0
    0.5645    1.1827   -0.4855 C   0  0  0  0  0  0  0  0  0  0  0  0
    0.0863    0.2084    1.7786 C   0  0  0  0  0  0  0  0  0  0  0  0
   -0.3802   -2.0515   -0.0182 C   0  0  0  0  0  0  0  0  0  0  0  0
   -2.4257   -2.4843   -1.1510 C   0  0  0  0  0  0  0  0  0  0  0  0
    6.0127   -0.7743    0.6865 C   0  0  0  0  0  0  0  0  0  0  0  0
    6.9587   -0.0581   -0.2711 C   0  0  1  0  0  0  0  0  0  0  0  0
    6.4469    1.3293   -0.5989 C   0  0  0  0  0  0  0  0  0  0  0  0
    5.5985    1.5200   -1.6896 C   0  0  0  0  0  0  0  0  0  0  0  0
    6.8236    2.4163    0.1901 C   0  0  0  0  0  0  0  0  0  0  0  0
    5.1270    2.7976   -1.9915 C   0  0  0  0  0  0  0  0  0  0  0  0
    6.3518    3.6938   -0.1118 C   0  0  0  0  0  0  0  0  0  0  0  0
    5.5035    3.8844   -1.2025 C   0  0  0  0  0  0  0  0  0  0  0  0
   -6.3368    2.3753   -1.3485 H   0  0  0  0  0  0  0  0  0  0  0  0
   -5.4594   -0.9990    0.6299 H   0  0  0  0  0  0  0  0  0  0  0  0
   -8.8028    1.1274   -0.0167 H   0  0  0  0  0  0  0  0  0  0  0  0
   -8.5764    1.3812   -1.7736 H   0  0  0  0  0  0  0  0  0  0  0  0
   -3.1968   -0.1145    2.1706 H   0  0  0  0  0  0  0  0  0  0  0  0
   -4.8507   -0.0581    2.7806 H   0  0  0  0  0  0  0  0  0  0  0  0
   -3.8302    1.3752    2.8967 H   0  0  0  0  0  0  0  0  0  0  0  0
   -3.2234    2.7133    0.8390 H   0  0  0  0  0  0  0  0  0  0  0  0
   -2.5624    1.2786    0.0602 H   0  0  0  0  0  0  0  0  0  0  0  0
   -3.8091    2.2375   -0.7550 H   0  0  0  0  0  0  0  0  0  0  0  0
    2.6640   -1.7347    2.4644 H   0  0  0  0  0  0  0  0  0  0  0  0
    1.1782   -1.2512   -1.2145 H   0  0  0  0  0  0  0  0  0  0  0  0
    4.4360   -3.0352    1.3754 H   0  0  0  0  0  0  0  0  0  0  0  0
   -0.4559    1.0378   -0.8543 H   0  0  0  0  0  0  0  0  0  0  0  0
    1.2247    1.1820   -1.3609 H   0  0  0  0  0  0  0  0  0  0  0  0
    0.6134    2.1783   -0.0298 H   0  0  0  0  0  0  0  0  0  0  0  0
    0.3213   -0.5649    2.5182 H   0  0  0  0  0  0  0  0  0  0  0  0
   -0.9767    0.1180    1.5375 H   0  0  0  0  0  0  0  0  0  0  0  0
    0.2207    1.1841    2.2606 H   0  0  0  0  0  0  0  0  0  0  0  0
    5.0298   -1.5055   -0.9887 H   0  0  0  0  0  0  0  0  0  0  0  0
   -2.7503   -2.5534   -2.1957 H   0  0  0  0  0  0  0  0  0  0  0  0
   -2.3339   -3.5148   -0.7883 H   0  0  0  0  0  0  0  0  0  0  0  0
    7.0490   -0.6390   -1.1975 H   0  0  0  0  0  0  0  0  0  0  0  0
    8.6050   -0.9864    0.5115 H   0  0  0  0  0  0  0  0  0  0  0  0
    8.9572    0.3775   -0.3016 H   0  0  0  0  0  0  0  0  0  0  0  0
    5.2964    0.6819   -2.3118 H   0  0  0  0  0  0  0  0  0  0  0  0
    7.4684    2.2998    1.0565 H   0  0  0  0  0  0  0  0  0  0  0  0
    4.4655    2.9458   -2.8400 H   0  0  0  0  0  0  0  0  0  0  0  0
    6.6413    4.5397    0.5049 H   0  0  0  0  0  0  0  0  0  0  0  0
    5.1350    4.8789   -1.4366 H   0  0  0  0  0  0  0  0  0  0  0  0
  1  3  2  0  0  0  0
  1  4  2  0  0  0  0
  1 16  1  0  0  0  0
  1 17  1  0  0  0  0
  2 23  1  0  0  0  0
  2 26  1  0  0  0  0
  5 20  2  0  0  0  0
  6 24  1  0  0  0  0
  6 32  1  0  0  0  0
  7 24  2  0  0  0  0
  8 31  1  0  0  0  0
  8 32  1  0  0  0  0
  9 28  2  0  0  0  0
 10 31  2  0  0  0  0
 11 33  2  0  0  0  0
 12 17  1  0  0  0  0
 12 18  1  0  0  0  0
 12 20  1  0  0  0  0
 13 23  1  0  0  0  0
 13 25  1  0  0  0  0
 13 28  1  0  0  0  0
 14 27  1  0  0  0  0
 14 33  1  0  0  0  0
 14 60  1  0  0  0  0
 15 34  1  0  0  0  0
 15 64  1  0  0  0  0
 15 65  1  0  0  0  0
 16 18  1  0  0  0  0
 16 21  1  0  0  0  0
 16 22  1  0  0  0  0
 17 19  1  0  0  0  0
 17 41  1  0  0  0  0
 18 24  1  0  0  0  0
 18 42  1  0  0  0  0
 19 20  1  0  0  0  0
 19 43  1  0  0  0  0
 19 44  1  0  0  0  0
 21 45  1  0  0  0  0
 21 46  1  0  0  0  0
 21 47  1  0  0  0  0
 22 48  1  0  0  0  0
 22 49  1  0  0  0  0
 22 50  1  0  0  0  0
 23 27  1  0  0  0  0
 23 51  1  0  0  0  0
 25 26  1  0  0  0  0
 25 31  1  0  0  0  0
 25 52  1  0  0  0  0
 26 29  1  0  0  0  0
 26 30  1  0  0  0  0
 27 28  1  0  0  0  0
 27 53  1  0  0  0  0
 29 54  1  0  0  0  0
 29 55  1  0  0  0  0
 29 56  1  0  0  0  0
 30 57  1  0  0  0  0
 30 58  1  0  0  0  0
 30 59  1  0  0  0  0
 32 61  1  0  0  0  0
 32 62  1  0  0  0  0
 33 34  1  0  0  0  0
 34 35  1  0  0  0  0
 34 63  1  0  0  0  0
 35 36  2  0  0  0  0
 35 37  1  0  0  0  0
 36 38  1  0  0  0  0
 36 66  1  0  0  0  0
 37 39  2  0  0  0  0
 37 67  1  0  0  0  0
 38 40  2  0  0  0  0
 38 68  1  0  0  0  0
 39 40  1  0  0  0  0
 39 69  1  0  0  0  0
 40 70  1  0  0  0  0
M  END
> <DATABASE_ID>
DB12127

> <DATABASE_NAME>
drugbank

> <ORIGINAL_SOURCE>
PUBCHEM

> <ORIGINAL_SOURCE_URL>
https://pubchem.ncbi.nlm.nih.gov/rest/pug/compound/inchikey/OPYGFNJSCUDTBT-PMLPCWDUSA-N/SDF?record_type=3d

> <SMILES>
[H][C@]12SC(C)(C)[C@@H](N1C(=O)[C@H]2NC(=O)[C@H](N)C1=CC=CC=C1)C(=O)OCOC(=O)[C@@H]1N2C(=O)C[C@@]2([H])S(=O)(=O)C1(C)C

> <INCHI_IDENTIFIER>
InChI=1S/C25H30N4O9S2/c1-24(2)17(29-20(32)16(21(29)39-24)27-19(31)15(26)12-8-6-5-7-9-12)22(33)37-11-38-23(34)18-25(3,4)40(35,36)14-10-13(30)28(14)18/h5-9,14-18,21H,10-11,26H2,1-4H3,(H,27,31)/t14-,15-,16-,17+,18+,21-/m1/s1

> <INCHI_KEY>
OPYGFNJSCUDTBT-PMLPCWDUSA-N

> <FORMULA>
C25H30N4O9S2

> <MOLECULAR_WEIGHT>
594.65

> <EXACT_MASS>
594.14542091

> <JCHEM_ACCEPTOR_COUNT>
8

> <JCHEM_ATOM_COUNT>
70

> <JCHEM_AVERAGE_NEUTRAL_MICROSPECIES_CHARGE>
0.6285493755671763

> <JCHEM_AVERAGE_POLARIZABILITY>
58.75508104977183

> <JCHEM_BIOAVAILABILITY>
1

> <JCHEM_DONOR_COUNT>
2

> <JCHEM_FORMAL_CHARGE>
0

> <JCHEM_GHOSE_FILTER>
0

> <JCHEM_IUPAC>
[(2S,5R,6R)-6-[(2R)-2-amino-2-phenylacetamido]-3,3-dimethyl-7-oxo-4-thia-1-azabicyclo[3.2.0]heptane-2-carbonyloxy]methyl (2S,5R)-3,3-dimethyl-4,4,7-trioxo-4lambda6-thia-1-azabicyclo[3.2.0]heptane-2-carboxylate

> <ALOGPS_LOGP>
1.55

> <JCHEM_LOGP>
-0.4024037763333319

> <ALOGPS_LOGS>
-3.32

> <JCHEM_MDDR_LIKE_RULE>
1

> <JCHEM_NEUTRAL_CHARGE>
1

> <JCHEM_NUMBER_OF_RINGS>
5

> <JCHEM_PHYSIOLOGICAL_CHARGE>
1

> <JCHEM_PKA>
14.348842544147177

> <JCHEM_PKA_STRONGEST_ACIDIC>
11.707901143576063

> <JCHEM_PKA_STRONGEST_BASIC>
7.228474831473878

> <JCHEM_POLAR_SURFACE_AREA>
182.47999999999996

> <JCHEM_REFRACTIVITY>
138.1167

> <JCHEM_ROTATABLE_BOND_COUNT>
9

> <JCHEM_RULE_OF_FIVE>
0

> <ALOGPS_SOLUBILITY>
2.83e-01 g/l

> <JCHEM_TRADITIONAL_IUPAC>
(5Z,7E)-deca-5,7,9-trien-2-one

> <JCHEM_VEBER_RULE>
0

$$$$

  Mrv1909 12181921482D          

 42 46  0  0  0  0            999 V2000
   -5.1480   -0.4480    0.0000 C   0  0  0  0  0  0  0  0  0  0  0  0
   -4.3609   -0.2004    0.0000 C   0  0  0  0  0  0  0  0  0  0  0  0
   -4.3513    0.6247    0.0000 N   0  0  0  0  0  0  0  0  0  0  0  0
   -5.1359    0.8881    0.0000 C   0  0  0  0  0  0  0  0  0  0  0  0
   -5.6243    0.2241    0.0000 C   0  0  0  0  0  0  0  0  0  0  0  0
   -3.6364    1.0323    0.0000 C   0  0  0  0  0  0  0  0  0  0  0  0
   -2.9243    0.6187    0.0000 C   0  0  0  0  0  0  0  0  0  0  0  0
   -2.2112    1.0302    0.0000 N   0  0  0  0  0  0  0  0  0  0  0  0
   -1.4991    0.6166    0.0000 C   0  0  0  0  0  0  0  0  0  0  0  0
    2.7778    0.6138    0.0000 C   0  0  1  0  0  0  0  0  0  0  0  0
    2.7766   -0.2112    0.0000 C   0  0  2  0  0  0  0  0  0  0  0  0
    3.4882   -0.6208    0.0000 C   0  0  1  0  0  0  0  0  0  0  0  0
    4.2009   -0.2133    0.0000 C   0  0  0  0  0  0  0  0  0  0  0  0
    4.2021    0.6117    0.0000 C   0  0  0  0  0  0  0  0  0  0  0  0
    3.4906    1.0295    0.0000 C   0  0  0  0  0  0  0  0  0  0  0  0
    1.3526    0.6159    0.0000 C   0  0  0  0  0  0  0  0  0  0  0  0
    1.3514   -0.2091    0.0000 C   0  0  2  0  0  0  0  0  0  0  0  0
    2.0629   -0.6186    0.0000 C   0  0  0  0  0  0  0  0  0  0  0  0
    2.0653    1.0317    0.0000 C   0  0  0  0  0  0  0  0  0  0  0  0
   -0.0715    0.6180    0.0000 C   0  0  0  0  0  0  0  0  0  0  0  0
   -0.0727   -0.2070    0.0000 C   0  0  0  0  0  0  0  0  0  0  0  0
    0.6388   -0.6165    0.0000 C   0  0  0  0  0  0  0  0  0  0  0  0
    0.6412    1.0338    0.0000 C   0  0  0  0  0  0  0  0  0  0  0  0
   -1.5014   -0.2108    0.0000 C   0  0  0  0  0  0  0  0  0  0  0  0
   -0.7871   -0.6249    0.0000 C   0  0  0  0  0  0  0  0  0  0  0  0
   -0.7864    1.0284    0.0000 C   0  0  0  0  0  0  0  0  0  0  0  0
   -2.9324   -0.2022    0.0000 O   0  0  0  0  0  0  0  0  0  0  0  0
    4.9123    1.0279    0.0000 C   0  0  0  0  0  0  0  0  0  0  0  0
    5.6243    0.6143    0.0000 N   0  0  0  0  0  0  0  0  0  0  0  0
    4.9093    1.8530    0.0000 O   0  0  0  0  0  0  0  0  0  0  0  0
    3.4869   -1.4459    0.0000 N   0  0  0  0  0  0  0  0  0  0  0  0
   -0.7964   -1.4473    0.0000 F   0  0  0  0  0  0  0  0  0  0  0  0
   -0.7915    1.8573    0.0000 O   0  0  0  0  0  0  0  0  0  0  0  0
    0.6379    1.8594    0.0000 O   0  0  0  0  0  0  0  0  0  0  0  0
    2.0589    1.8573    0.0000 O   0  0  0  0  0  0  0  0  0  0  0  0
    3.4841    1.8552    0.0000 O   0  0  0  0  0  0  0  0  0  0  0  0
    2.7708    1.4395    0.0000 O   0  0  0  0  0  0  0  0  0  0  0  0
    4.9098   -0.6266    0.0000 O   0  0  0  0  0  0  0  0  0  0  0  0
    4.2008   -1.8594    0.0000 C   0  0  0  0  0  0  0  0  0  0  0  0
    2.7717   -1.8573    0.0000 C   0  0  0  0  0  0  0  0  0  0  0  0
    2.7671   -1.0359    0.0000 H   0  0  0  0  0  0  0  0  0  0  0  0
    1.3419   -1.0338    0.0000 H   0  0  0  0  0  0  0  0  0  0  0  0
  4  5  1  0  0  0  0
  5  1  1  0  0  0  0
  1  2  1  0  0  0  0
 20 23  1  0  0  0  0
 21 22  1  0  0  0  0
 22 17  1  0  0  0  0
 16 23  1  0  0  0  0
  3  6  1  0  0  0  0
  9 24  2  0  0  0  0
 24 25  1  0  0  0  0
 25 21  2  0  0  0  0
  6  7  1  0  0  0  0
 20 26  2  0  0  0  0
 26  9  1  0  0  0  0
 10 15  1  0  0  0  0
  7 27  2  0  0  0  0
 11 12  1  0  0  0  0
 14 28  1  0  0  0  0
 12 13  1  0  0  0  0
 28 29  1  0  0  0  0
 13 14  2  0  0  0  0
 28 30  2  0  0  0  0
 14 15  1  0  0  0  0
 12 31  1  1  0  0  0
 16 17  1  0  0  0  0
 25 32  1  0  0  0  0
  2  3  1  0  0  0  0
 26 33  1  0  0  0  0
  7  8  1  0  0  0  0
 23 34  2  0  0  0  0
  3  4  1  0  0  0  0
 19 35  1  0  0  0  0
  8  9  1  0  0  0  0
 15 36  2  0  0  0  0
 16 19  2  0  0  0  0
 10 37  1  1  0  0  0
 17 18  1  0  0  0  0
 13 38  1  0  0  0  0
 18 11  1  0  0  0  0
 31 39  1  0  0  0  0
 10 19  1  0  0  0  0
 31 40  1  0  0  0  0
 20 21  1  0  0  0  0
 11 41  1  1  0  0  0
 10 11  1  0  0  0  0
 17 42  1  1  0  0  0
M  END
> <DATABASE_ID>
DB12329

> <DATABASE_NAME>
drugbank

> <SMILES>
[H][C@@]12CC3=C(F)C=C(NC(=O)CN4CCCC4)C(O)=C3C(=O)C1=C(O)[C@]1(O)C(=O)C(C(N)=O)=C(O)[C@@H](N(C)C)[C@]1([H])C2

> <INCHI_IDENTIFIER>
InChI=1S/C27H31FN4O8/c1-31(2)20-13-8-11-7-12-14(28)9-15(30-16(33)10-32-5-3-4-6-32)21(34)18(12)22(35)17(11)24(37)27(13,40)25(38)19(23(20)36)26(29)39/h9,11,13,20,34,36-37,40H,3-8,10H2,1-2H3,(H2,29,39)(H,30,33)/t11-,13-,20-,27-/m0/s1

> <INCHI_KEY>
HLFSMUUOKPBTSM-ISIOAQNYSA-N

> <FORMULA>
C27H31FN4O8

> <MOLECULAR_WEIGHT>
558.563

> <EXACT_MASS>
558.212592137

> <JCHEM_ACCEPTOR_COUNT>
10

> <JCHEM_ATOM_COUNT>
71

> <JCHEM_AVERAGE_NEUTRAL_MICROSPECIES_CHARGE>
-0.6218827123212443

> <JCHEM_AVERAGE_POLARIZABILITY>
53.60088599006165

> <JCHEM_BIOAVAILABILITY>
0

> <JCHEM_DONOR_COUNT>
6

> <JCHEM_FORMAL_CHARGE>
0

> <JCHEM_GHOSE_FILTER>
0

> <JCHEM_IUPAC>
(4S,4aS,5aR,12aS)-4-(dimethylamino)-7-fluoro-3,10,12,12a-tetrahydroxy-1,11-dioxo-9-[2-(pyrrolidin-1-yl)acetamido]-1,4,4a,5,5a,6,11,12a-octahydrotetracene-2-carboxamide

> <ALOGPS_LOGP>
0.24

> <JCHEM_LOGP>
-3.4926462982699666

> <ALOGPS_LOGS>
-2.82

> <JCHEM_MDDR_LIKE_RULE>
0

> <JCHEM_NEUTRAL_CHARGE>
-1

> <JCHEM_NUMBER_OF_RINGS>
5

> <JCHEM_PHYSIOLOGICAL_CHARGE>
-1

> <JCHEM_PKA>
7.145823482880628

> <JCHEM_PKA_STRONGEST_ACIDIC>
2.962651711231324

> <JCHEM_PKA_STRONGEST_BASIC>
9.004496224065633

> <JCHEM_POLAR_SURFACE_AREA>
193.72999999999996

> <JCHEM_REFRACTIVITY>
144.16099999999994

> <JCHEM_ROTATABLE_BOND_COUNT>
5

> <JCHEM_RULE_OF_FIVE>
0

> <ALOGPS_SOLUBILITY>
8.38e-01 g/l

> <JCHEM_TRADITIONAL_IUPAC>
doravirine

> <JCHEM_VEBER_RULE>
0

> <DRUGBANK_ID>
DB12329

> <DRUG_GROUPS>
approved; investigational

> <GENERIC_NAME>
Eravacycline

> <SYNONYMS>
Eravacyclina; Eravacycline; Eravacyclinum

> <PRODUCTS>
Xerava

> <SALTS>
Eravacycline dihydrochloride

$$$$
171758
  -OEChem-10051722443D

 45 47  0     1  0  0  0  0  0999 V2000
   -0.8317    1.1481    0.9121 S   0  0  0  0  0  0  0  0  0  0  0  0
    2.6823    3.6273   -0.9195 S   0  0  0  0  0  0  0  0  0  0  0  0
   -0.3688   -2.9269    0.9002 O   0  0  0  0  0  0  0  0  0  0  0  0
   -2.0381   -2.1486   -1.7511 O   0  0  0  0  0  0  0  0  0  0  0  0
   -5.2014    1.3128   -0.9273 O   0  0  0  0  0  0  0  0  0  0  0  0
   -5.0880   -0.7293    0.0790 O   0  0  0  0  0  0  0  0  0  0  0  0
    2.0162   -1.3246    1.4950 O   0  0  0  0  0  0  0  0  0  0  0  0
    4.3723   -2.2385   -0.5031 O   0  0  0  0  0  0  0  0  0  0  0  0
    5.3028   -0.2546    0.0903 O   0  0  0  0  0  0  0  0  0  0  0  0
   -2.4335   -0.7161    0.0825 N   0  0  0  0  0  0  0  0  0  0  0  0
    0.6208   -1.0824   -0.3416 N   0  0  0  0  0  0  0  0  0  0  0  0
   -1.3706   -0.5924    1.0844 C   0  0  1  0  0  0  0  0  0  0  0  0
   -0.5849   -1.6416    0.2858 C   0  0  2  0  0  0  0  0  0  0  0  0
   -3.0637    0.4854   -0.4260 C   0  0  2  0  0  0  0  0  0  0  0  0
   -2.5496    1.6715    0.4181 C   0  0  0  0  0  0  0  0  0  0  0  0
   -1.7884   -1.6481   -0.6779 C   0  0  0  0  0  0  0  0  0  0  0  0
   -3.3502    1.9346    1.7009 C   0  0  0  0  0  0  0  0  0  0  0  0
   -2.4595    2.9514   -0.4150 C   0  0  0  0  0  0  0  0  0  0  0  0
   -4.5416    0.2620   -0.3816 C   0  0  0  0  0  0  0  0  0  0  0  0
    1.8334   -0.9724    0.3310 C   0  0  0  0  0  0  0  0  0  0  0  0
   -0.1074   -3.9964    0.0036 C   0  0  0  0  0  0  0  0  0  0  0  0
    2.9358   -0.3505   -0.5246 C   0  0  1  0  0  0  0  0  0  0  0  0
    2.8990    1.1539   -0.3818 C   0  0  0  0  0  0  0  0  0  0  0  0
    4.3240   -0.9044   -0.2500 C   0  0  0  0  0  0  0  0  0  0  0  0
    3.1135    1.8107    0.8452 C   0  0  0  0  0  0  0  0  0  0  0  0
    2.6541    1.9918   -1.4259 C   0  0  0  0  0  0  0  0  0  0  0  0
    3.0234    3.1772    0.6971 C   0  0  0  0  0  0  0  0  0  0  0  0
   -1.6971   -0.8908    2.0849 H   0  0  0  0  0  0  0  0  0  0  0  0
   -2.7715    0.5821   -1.4804 H   0  0  0  0  0  0  0  0  0  0  0  0
   -2.8668    2.6956    2.3254 H   0  0  0  0  0  0  0  0  0  0  0  0
   -4.3544    2.3085    1.4723 H   0  0  0  0  0  0  0  0  0  0  0  0
   -3.4698    1.0302    2.3080 H   0  0  0  0  0  0  0  0  0  0  0  0
   -2.0065    3.7708    0.1555 H   0  0  0  0  0  0  0  0  0  0  0  0
   -1.8607    2.8057   -1.3217 H   0  0  0  0  0  0  0  0  0  0  0  0
   -3.4523    3.2892   -0.7305 H   0  0  0  0  0  0  0  0  0  0  0  0
    0.5771   -0.7495   -1.3019 H   0  0  0  0  0  0  0  0  0  0  0  0
    0.2924   -4.8343    0.5812 H   0  0  0  0  0  0  0  0  0  0  0  0
   -1.0342   -4.3238   -0.4749 H   0  0  0  0  0  0  0  0  0  0  0  0
    0.6310   -3.7178   -0.7537 H   0  0  0  0  0  0  0  0  0  0  0  0
    2.7360   -0.5982   -1.5778 H   0  0  0  0  0  0  0  0  0  0  0  0
   -6.1738    1.1856   -0.9067 H   0  0  0  0  0  0  0  0  0  0  0  0
    3.3229    1.3329    1.7937 H   0  0  0  0  0  0  0  0  0  0  0  0
    2.4580    1.7454   -2.4602 H   0  0  0  0  0  0  0  0  0  0  0  0
    3.1411    3.9328    1.4610 H   0  0  0  0  0  0  0  0  0  0  0  0
    5.2710   -2.6050   -0.3604 H   0  0  0  0  0  0  0  0  0  0  0  0
  1 12  1  0  0  0  0
  1 15  1  0  0  0  0
  2 26  1  0  0  0  0
  2 27  1  0  0  0  0
  3 13  1  0  0  0  0
  3 21  1  0  0  0  0
  4 16  2  0  0  0  0
  5 19  1  0  0  0  0
  5 41  1  0  0  0  0
  6 19  2  0  0  0  0
  7 20  2  0  0  0  0
  8 24  1  0  0  0  0
  8 45  1  0  0  0  0
  9 24  2  0  0  0  0
 10 12  1  0  0  0  0
 10 14  1  0  0  0  0
 10 16  1  0  0  0  0
 11 13  1  0  0  0  0
 11 20  1  0  0  0  0
 11 36  1  0  0  0  0
 12 13  1  0  0  0  0
 12 28  1  0  0  0  0
 13 16  1  0  0  0  0
 14 15  1  0  0  0  0
 14 19  1  0  0  0  0
 14 29  1  0  0  0  0
 15 17  1  0  0  0  0
 15 18  1  0  0  0  0
 17 30  1  0  0  0  0
 17 31  1  0  0  0  0
 17 32  1  0  0  0  0
 18 33  1  0  0  0  0
 18 34  1  0  0  0  0
 18 35  1  0  0  0  0
 20 22  1  0  0  0  0
 21 37  1  0  0  0  0
 21 38  1  0  0  0  0
 21 39  1  0  0  0  0
 22 23  1  0  0  0  0
 22 24  1  0  0  0  0
 22 40  1  0  0  0  0
 23 25  1  0  0  0  0
 23 26  2  0  0  0  0
 25 27  2  0  0  0  0
 25 42  1  0  0  0  0
 26 43  1  0  0  0  0
 27 44  1  0  0  0  0
M  END
> <DATABASE_ID>
DB12343

> <DATABASE_NAME>
drugbank

> <ORIGINAL_SOURCE>
PUBCHEM

> <ORIGINAL_SOURCE_URL>
https://pubchem.ncbi.nlm.nih.gov/rest/pug/compound/inchikey/BVCKFLJARNKCSS-DWPRYXJFSA-N/SDF?record_type=3d

> <SMILES>
CO[C@]1(NC(=O)C(C(O)=O)C2=CSC=C2)[C@H]2SC(C)(C)[C@@H](N2C1=O)C(O)=O

> <INCHI_IDENTIFIER>
InChI=1S/C16H18N2O7S2/c1-15(2)9(12(22)23)18-13(24)16(25-3,14(18)27-15)17-10(19)8(11(20)21)7-4-5-26-6-7/h4-6,8-9,14H,1-3H3,(H,17,19)(H,20,21)(H,22,23)/t8?,9-,14+,16-/m0/s1

> <INCHI_KEY>
BVCKFLJARNKCSS-DWPRYXJFSA-N

> <FORMULA>
C16H18N2O7S2

> <MOLECULAR_WEIGHT>
414.45

> <EXACT_MASS>
414.055543276

> <JCHEM_ACCEPTOR_COUNT>
7

> <JCHEM_ATOM_COUNT>
45

> <JCHEM_AVERAGE_POLARIZABILITY>
38.908012682247175

> <JCHEM_BIOAVAILABILITY>
1

> <JCHEM_DONOR_COUNT>
3

> <JCHEM_FORMAL_CHARGE>
0

> <JCHEM_GHOSE_FILTER>
1

> <JCHEM_IUPAC>
(2S,5R,6S)-6-[2-carboxy-2-(thiophen-3-yl)acetamido]-6-methoxy-3,3-dimethyl-7-oxo-4-thia-1-azabicyclo[3.2.0]heptane-2-carboxylic acid

> <ALOGPS_LOGP>
1.13

> <JCHEM_LOGP>
1.2014304629999997

> <ALOGPS_LOGS>
-3.61

> <JCHEM_MDDR_LIKE_RULE>
1

> <JCHEM_NUMBER_OF_RINGS>
3

> <JCHEM_PHYSIOLOGICAL_CHARGE>
-2

> <JCHEM_PKA>
4.115695168574126

> <JCHEM_PKA_STRONGEST_ACIDIC>
3.1049442570630355

> <JCHEM_PKA_STRONGEST_BASIC>
-4.314537920367171

> <JCHEM_POLAR_SURFACE_AREA>
133.24

> <JCHEM_REFRACTIVITY>
94.21889999999999

> <JCHEM_ROTATABLE_BOND_COUNT>
6

> <JCHEM_RULE_OF_FIVE>
1

> <ALOGPS_SOLUBILITY>
1.02e-01 g/l

> <JCHEM_TRADITIONAL_IUPAC>
temocillin

> <JCHEM_VEBER_RULE>
0

$$$$

  Mrv1718010091812102D          

 42 45  0  0  0  0            999 V2000
   -1.0716    1.0614    0.0000 C   0  0  0  0  0  0  0  0  0  0  0  0
   -1.7861    0.6489    0.0000 C   0  0  0  0  0  0  0  0  0  0  0  0
   -1.7861   -0.1760    0.0000 C   0  0  0  0  0  0  0  0  0  0  0  0
   -1.0716   -0.5885    0.0000 C   0  0  0  0  0  0  0  0  0  0  0  0
   -0.3572   -0.1760    0.0000 C   0  0  0  0  0  0  0  0  0  0  0  0
   -0.3572    0.6489    0.0000 C   0  0  0  0  0  0  0  0  0  0  0  0
   -2.5006    1.0614    0.0000 C   0  0  0  0  0  0  0  0  0  0  0  0
   -3.2151    0.6489    0.0000 N   0  0  0  0  0  0  0  0  0  0  0  0
   -3.9295    1.0614    0.0000 C   0  0  0  0  0  0  0  0  0  0  0  0
   -4.6440    0.6489    0.0000 C   0  0  0  0  0  0  0  0  0  0  0  0
   -5.3585    1.0614    0.0000 C   0  0  0  0  0  0  0  0  0  0  0  0
   -5.3585    0.2364    0.0000 C   0  0  0  0  0  0  0  0  0  0  0  0
   -4.4304   -0.1479    0.0000 C   0  0  0  0  0  0  0  0  0  0  0  0
    0.3572    1.0614    0.0000 C   0  0  0  0  0  0  0  0  0  0  0  0
    0.3572   -0.5885    0.0000 C   0  0  0  0  0  0  0  0  0  0  0  0
    1.0716   -0.1760    0.0000 C   0  0  2  0  0  0  0  0  0  0  0  0
    1.0716    0.6489    0.0000 C   0  0  0  0  0  0  0  0  0  0  0  0
    1.7861    1.0614    0.0000 C   0  0  0  0  0  0  0  0  0  0  0  0
    1.7861   -0.5885    0.0000 C   0  0  0  0  0  0  0  0  0  0  0  0
    2.5007   -0.1760    0.0000 C   0  0  2  0  0  0  0  0  0  0  0  0
    2.5007    0.6489    0.0000 C   0  0  1  0  0  0  0  0  0  0  0  0
    3.2151    1.0614    0.0000 C   0  0  0  0  0  0  0  0  0  0  0  0
    3.2151   -0.5885    0.0000 C   0  0  1  0  0  0  0  0  0  0  0  0
    3.9296   -0.1760    0.0000 C   0  0  0  0  0  0  0  0  0  0  0  0
    3.9296    0.6489    0.0000 C   0  0  0  0  0  0  0  0  0  0  0  0
    4.6441    1.0614    0.0000 C   0  0  0  0  0  0  0  0  0  0  0  0
    4.6441    1.8864    0.0000 O   0  0  0  0  0  0  0  0  0  0  0  0
    5.3584    0.6489    0.0000 N   0  0  0  0  0  0  0  0  0  0  0  0
    4.6441   -0.5885    0.0000 O   0  0  0  0  0  0  0  0  0  0  0  0
    3.2151    1.8864    0.0000 O   0  0  0  0  0  0  0  0  0  0  0  0
    3.7985   -1.1719    0.0000 N   0  0  0  0  0  0  0  0  0  0  0  0
    4.6235   -1.1719    0.0000 C   0  0  0  0  0  0  0  0  0  0  0  0
    3.3860   -1.8864    0.0000 C   0  0  0  0  0  0  0  0  0  0  0  0
    2.5007    1.4739    0.0000 O   0  0  0  0  0  0  0  0  0  0  0  0
    1.7861    1.8864    0.0000 O   0  0  0  0  0  0  0  0  0  0  0  0
    0.3572    1.8864    0.0000 O   0  0  0  0  0  0  0  0  0  0  0  0
   -1.0716    1.8864    0.0000 O   0  0  0  0  0  0  0  0  0  0  0  0
   -1.0716   -1.4135    0.0000 N   0  0  0  0  0  0  0  0  0  0  0  0
   -0.3572   -1.8260    0.0000 C   0  0  0  0  0  0  0  0  0  0  0  0
   -1.7861   -1.8260    0.0000 C   0  0  0  0  0  0  0  0  0  0  0  0
    2.5007   -1.1760    0.0000 H   0  0  0  0  0  0  0  0  0  0  0  0
    1.0716   -1.1760    0.0000 H   0  0  0  0  0  0  0  0  0  0  0  0
  1  2  1  0  0  0  0
  2  3  2  0  0  0  0
  3  4  1  0  0  0  0
  4  5  2  0  0  0  0
  1  6  2  0  0  0  0
  2  7  1  0  0  0  0
  7  8  1  0  0  0  0
  8  9  1  0  0  0  0
  9 10  1  0  0  0  0
 10 11  1  0  0  0  0
 10 12  1  0  0  0  0
 10 13  1  0  0  0  0
 14  6  1  0  0  0  0
  6  5  1  0  0  0  0
  5 15  1  0  0  0  0
 15 16  1  0  0  0  0
 14 17  1  0  0  0  0
 18 17  2  0  0  0  0
 17 16  1  0  0  0  0
 16 19  1  0  0  0  0
 19 20  1  0  0  0  0
 18 21  1  0  0  0  0
 22 21  1  0  0  0  0
 21 20  1  0  0  0  0
 20 23  1  0  0  0  0
 23 24  1  0  0  0  0
 24 25  2  0  0  0  0
 22 25  1  0  0  0  0
 25 26  1  0  0  0  0
 26 27  2  0  0  0  0
 26 28  1  0  0  0  0
 24 29  1  0  0  0  0
 22 30  2  0  0  0  0
 23 31  1  1  0  0  0
 31 32  1  0  0  0  0
 31 33  1  0  0  0  0
 21 34  1  1  0  0  0
 18 35  1  0  0  0  0
 14 36  2  0  0  0  0
  1 37  1  0  0  0  0
 38  4  1  0  0  0  0
 38 39  1  0  0  0  0
 38 40  1  0  0  0  0
 20 41  1  1  0  0  0
 16 42  1  1  0  0  0
M  END
> <DATABASE_ID>
DB12455

> <DATABASE_NAME>
drugbank

> <SMILES>
[H][C@@]12CC3=C(C=C(CNCC(C)(C)C)C(O)=C3C(=O)C1=C(O)[C@]1(O)C(=O)C(C(N)=O)=C(O)[C@@H](N(C)C)[C@]1([H])C2)N(C)C

> <INCHI_IDENTIFIER>
InChI=1S/C29H40N4O7/c1-28(2,3)12-31-11-14-10-17(32(4)5)15-8-13-9-16-21(33(6)7)24(36)20(27(30)39)26(38)29(16,40)25(37)18(13)23(35)19(15)22(14)34/h10,13,16,21,31,34,36-37,40H,8-9,11-12H2,1-7H3,(H2,30,39)/t13-,16-,21-,29-/m0/s1

> <INCHI_KEY>
JEECQCWWSTZDCK-IQZGDKDPSA-N

> <FORMULA>
C29H40N4O7

> <MOLECULAR_WEIGHT>
556.66

> <EXACT_MASS>
556.289699644

> <JCHEM_ACCEPTOR_COUNT>
10

> <JCHEM_ATOM_COUNT>
80

> <JCHEM_AVERAGE_POLARIZABILITY>
60.01596721110642

> <JCHEM_BIOAVAILABILITY>
0

> <JCHEM_DONOR_COUNT>
6

> <JCHEM_FORMAL_CHARGE>
0

> <JCHEM_GHOSE_FILTER>
0

> <JCHEM_IUPAC>
(4S,4aS,5aR,12aS)-4,7-bis(dimethylamino)-9-{[(2,2-dimethylpropyl)amino]methyl}-3,10,12,12a-tetrahydroxy-1,11-dioxo-1,4,4a,5,5a,6,11,12a-octahydrotetracene-2-carboxamide

> <ALOGPS_LOGP>
0.94

> <JCHEM_LOGP>
-2.179127676827586

> <ALOGPS_LOGS>
-3.42

> <JCHEM_MDDR_LIKE_RULE>
1

> <JCHEM_NUMBER_OF_RINGS>
4

> <JCHEM_PHYSIOLOGICAL_CHARGE>
1

> <JCHEM_PKA>
7.390927265363257

> <JCHEM_PKA_STRONGEST_ACIDIC>
2.874852456421025

> <JCHEM_PKA_STRONGEST_BASIC>
10.54083543847632

> <JCHEM_POLAR_SURFACE_AREA>
176.66

> <JCHEM_REFRACTIVITY>
153.93049999999997

> <JCHEM_ROTATABLE_BOND_COUNT>
7

> <JCHEM_RULE_OF_FIVE>
0

> <ALOGPS_SOLUBILITY>
2.13e-01 g/l

> <JCHEM_TRADITIONAL_IUPAC>
omadacycline

> <JCHEM_VEBER_RULE>
0

> <DRUGBANK_ID>
DB12455

> <DRUG_GROUPS>
approved; investigational

> <GENERIC_NAME>
Omadacycline

> <SYNONYMS>
Amadacycline; Omadacycline

> <PRODUCTS>
Nuzyra

> <SALTS>
Omadacycline tosylate

$$$$
8281
  -OEChem-11151811043D

 31 31  0     0  0  0  0  0  0999 V2000
    0.4264   -2.0351    0.0058 S   0  0  0  0  0  0  0  0  0  0  0  0
    0.2360   -2.4422   -1.3729 O   0  0  0  0  0  0  0  0  0  0  0  0
    0.9249   -2.9770    0.9893 O   0  0  0  0  0  0  0  0  0  0  0  0
   -1.8533   -0.4699   -1.4265 O   0  0  0  0  0  0  0  0  0  0  0  0
   -1.0156   -1.3198    0.5899 N   0  0  0  0  0  0  0  0  0  0  0  0
    4.1116    2.6310    0.0672 N   0  0  0  0  0  0  0  0  0  0  0  0
    1.5224   -0.6486    0.0242 C   0  0  0  0  0  0  0  0  0  0  0  0
    2.2654   -0.3893    1.1629 C   0  0  0  0  0  0  0  0  0  0  0  0
    1.6165    0.1536   -1.1001 C   0  0  0  0  0  0  0  0  0  0  0  0
    3.2371    1.5247    0.0536 C   0  0  0  0  0  0  0  0  0  0  0  0
    3.1293    0.7059    1.1778 C   0  0  0  0  0  0  0  0  0  0  0  0
    2.4805    1.2485   -1.0853 C   0  0  0  0  0  0  0  0  0  0  0  0
   -1.9495   -0.5905   -0.2142 C   0  0  0  0  0  0  0  0  0  0  0  0
   -3.7563    1.0900    0.3204 C   0  0  0  0  0  0  0  0  0  0  0  0
   -3.0611   -0.0278    0.6000 C   0  0  0  0  0  0  0  0  0  0  0  0
   -4.8804    1.6700    1.1325 C   0  0  0  0  0  0  0  0  0  0  0  0
   -3.4338    1.8765   -0.9248 C   0  0  0  0  0  0  0  0  0  0  0  0
    2.1902   -1.0092    2.0509 H   0  0  0  0  0  0  0  0  0  0  0  0
    1.0325   -0.0421   -1.9940 H   0  0  0  0  0  0  0  0  0  0  0  0
   -1.2070   -1.4340    1.5940 H   0  0  0  0  0  0  0  0  0  0  0  0
    3.7123    0.9118    2.0719 H   0  0  0  0  0  0  0  0  0  0  0  0
    2.5546    1.8797   -1.9672 H   0  0  0  0  0  0  0  0  0  0  0  0
   -3.2859   -0.5584    1.5225 H   0  0  0  0  0  0  0  0  0  0  0  0
   -5.1013    1.0485    2.0066 H   0  0  0  0  0  0  0  0  0  0  0  0
   -4.6190    2.6707    1.4907 H   0  0  0  0  0  0  0  0  0  0  0  0
   -5.7921    1.7370    0.5303 H   0  0  0  0  0  0  0  0  0  0  0  0
   -3.7498    2.9203   -0.8119 H   0  0  0  0  0  0  0  0  0  0  0  0
   -3.9641    1.4620   -1.7880 H   0  0  0  0  0  0  0  0  0  0  0  0
   -2.3608    1.9174   -1.1351 H   0  0  0  0  0  0  0  0  0  0  0  0
    4.6590    2.8334    0.8931 H   0  0  0  0  0  0  0  0  0  0  0  0
    4.1882    3.2258   -0.7471 H   0  0  0  0  0  0  0  0  0  0  0  0
  1  2  2  0  0  0  0
  1  3  2  0  0  0  0
  1  5  1  0  0  0  0
  1  7  1  0  0  0  0
  4 13  2  0  0  0  0
  5 13  1  0  0  0  0
  5 20  1  0  0  0  0
  6 10  1  0  0  0  0
  6 30  1  0  0  0  0
  6 31  1  0  0  0  0
  7  8  2  0  0  0  0
  7  9  1  0  0  0  0
  8 11  1  0  0  0  0
  8 18  1  0  0  0  0
  9 12  2  0  0  0  0
  9 19  1  0  0  0  0
 10 11  2  0  0  0  0
 10 12  1  0  0  0  0
 11 21  1  0  0  0  0
 12 22  1  0  0  0  0
 13 15  1  0  0  0  0
 14 15  2  0  0  0  0
 14 16  1  0  0  0  0
 14 17  1  0  0  0  0
 15 23  1  0  0  0  0
 16 24  1  0  0  0  0
 16 25  1  0  0  0  0
 16 26  1  0  0  0  0
 17 27  1  0  0  0  0
 17 28  1  0  0  0  0
 17 29  1  0  0  0  0
M  END
> <DATABASE_ID>
DB13214

> <DATABASE_NAME>
drugbank

> <ORIGINAL_SOURCE>
PUBCHEM

> <ORIGINAL_SOURCE_URL>
https://pubchem.ncbi.nlm.nih.gov/rest/pug/compound/inchikey/XRVJPLDTMUSSDE-UHFFFAOYSA-N/SDF?record_type=3d

> <SMILES>
CC(C)=CC(=O)NS(=O)(=O)C1=CC=C(N)C=C1

> <INCHI_IDENTIFIER>
InChI=1S/C11H14N2O3S/c1-8(2)7-11(14)13-17(15,16)10-5-3-9(12)4-6-10/h3-7H,12H2,1-2H3,(H,13,14)

> <INCHI_KEY>
XRVJPLDTMUSSDE-UHFFFAOYSA-N

> <FORMULA>
C11H14N2O3S

> <MOLECULAR_WEIGHT>
254.3

> <EXACT_MASS>
254.072513493

> <JCHEM_ACCEPTOR_COUNT>
4

> <JCHEM_ATOM_COUNT>
31

> <JCHEM_AVERAGE_POLARIZABILITY>
26.1229712376524

> <JCHEM_BIOAVAILABILITY>
1

> <JCHEM_DONOR_COUNT>
2

> <JCHEM_FORMAL_CHARGE>
0

> <JCHEM_GHOSE_FILTER>
1

> <JCHEM_IUPAC>
N-(4-aminobenzenesulfonyl)-3-methylbut-2-enamide

> <ALOGPS_LOGP>
0.63

> <JCHEM_LOGP>
1.1252482106666664

> <ALOGPS_LOGS>
-2.32

> <JCHEM_MDDR_LIKE_RULE>
0

> <JCHEM_NUMBER_OF_RINGS>
1

> <JCHEM_PHYSIOLOGICAL_CHARGE>
-1

> <JCHEM_PKA_STRONGEST_ACIDIC>
4.408088221327244

> <JCHEM_PKA_STRONGEST_BASIC>
2.1082614612770136

> <JCHEM_POLAR_SURFACE_AREA>
89.26

> <JCHEM_REFRACTIVITY>
67.0854

> <JCHEM_ROTATABLE_BOND_COUNT>
2

> <JCHEM_RULE_OF_FIVE>
1

> <ALOGPS_SOLUBILITY>
1.23e+00 g/l

> <JCHEM_TRADITIONAL_IUPAC>
sulfadicramide

> <JCHEM_VEBER_RULE>
0

$$$$
3037206
  -OEChem-10061700183D

 73 75  0     1  0  0  0  0  0999 V2000
   -1.0766   -0.5672    0.1933 O   0  0  0  0  0  0  0  0  0  0  0  0
    1.7698   -0.3552    0.2183 O   0  0  0  0  0  0  0  0  0  0  0  0
   -2.9767    0.1105    1.3925 O   0  0  0  0  0  0  0  0  0  0  0  0
    0.5554   -3.2674    2.0222 O   0  0  0  0  0  0  0  0  0  0  0  0
    3.8168    0.4616    1.0640 O   0  0  0  0  0  0  0  0  0  0  0  0
   -1.8908    1.9378   -0.6334 O   0  0  0  0  0  0  0  0  0  0  0  0
   -6.1802    1.5875    0.3478 O   0  0  0  0  0  0  0  0  0  0  0  0
   -0.9096   -4.1985   -0.4454 N   0  0  0  0  0  0  0  0  0  0  0  0
    2.1318   -3.9749   -0.4213 N   0  0  0  0  0  0  0  0  0  0  0  0
   -4.9611    0.2266   -1.7005 N   0  0  0  0  0  0  0  0  0  0  0  0
    0.3706    1.8051    1.4670 N   0  0  0  0  0  0  0  0  0  0  0  0
    6.2324    1.7134   -1.4195 N   0  0  0  0  0  0  0  0  0  0  0  0
   -0.8337   -1.9326    0.5398 C   0  0  2  0  0  0  0  0  0  0  0  0
    1.7248   -1.7418    0.5627 C   0  0  1  0  0  0  0  0  0  0  0  0
    0.4506   -1.9983    1.3845 C   0  0  2  0  0  0  0  0  0  0  0  0
   -0.7731   -2.7732   -0.7498 C   0  0  1  0  0  0  0  0  0  0  0  0
    1.8122   -2.5803   -0.7270 C   0  0  2  0  0  0  0  0  0  0  0  0
    0.5124   -2.4788   -1.5459 C   0  0  0  0  0  0  0  0  0  0  0  0
   -2.4736   -0.2946    0.1190 C   0  0  1  0  0  0  0  0  0  0  0  0
   -4.1768    1.2471   -0.9873 C   0  0  2  0  0  0  0  0  0  0  0  0
   -2.7032    0.8009   -0.9321 C   0  0  1  0  0  0  0  0  0  0  0  0
   -4.7547    1.4868    0.4358 C   0  0  2  0  0  0  0  0  0  0  0  0
    2.3958    0.4063    1.2377 C   0  0  1  0  0  0  0  0  0  0  0  0
    1.8203    1.8292    1.2861 C   0  0  1  0  0  0  0  0  0  0  0  0
   -4.3875    0.3264    1.3717 C   0  0  0  0  0  0  0  0  0  0  0  0
    2.2012    2.6107    0.0260 C   0  0  0  0  0  0  0  0  0  0  0  0
    4.2198    1.1176   -0.1439 C   0  0  1  0  0  0  0  0  0  0  0  0
    3.7139    2.5612   -0.1738 C   0  0  0  0  0  0  0  0  0  0  0  0
   -4.2638    2.8169    1.0307 C   0  0  0  0  0  0  0  0  0  0  0  0
    5.7407    1.0714   -0.2084 C   0  0  0  0  0  0  0  0  0  0  0  0
   -4.7946    0.3681   -3.1363 C   0  0  0  0  0  0  0  0  0  0  0  0
    7.6877    1.6776   -1.4745 C   0  0  0  0  0  0  0  0  0  0  0  0
   -1.6538   -2.2989    1.1752 H   0  0  0  0  0  0  0  0  0  0  0  0
    2.6110   -1.9906    1.1652 H   0  0  0  0  0  0  0  0  0  0  0  0
    0.3604   -1.2510    2.1809 H   0  0  0  0  0  0  0  0  0  0  0  0
   -1.6133   -2.5051   -1.4015 H   0  0  0  0  0  0  0  0  0  0  0  0
    2.6234   -2.1819   -1.3499 H   0  0  0  0  0  0  0  0  0  0  0  0
    0.5688   -3.1351   -2.4250 H   0  0  0  0  0  0  0  0  0  0  0  0
    0.4398   -1.4594   -1.9494 H   0  0  0  0  0  0  0  0  0  0  0  0
   -3.0197   -1.1930   -0.1988 H   0  0  0  0  0  0  0  0  0  0  0  0
   -4.2665    2.1989   -1.5294 H   0  0  0  0  0  0  0  0  0  0  0  0
   -2.3345    0.4404   -1.8977 H   0  0  0  0  0  0  0  0  0  0  0  0
    2.2274   -0.0457    2.2235 H   0  0  0  0  0  0  0  0  0  0  0  0
    2.2668    2.3489    2.1442 H   0  0  0  0  0  0  0  0  0  0  0  0
   -4.7101    0.5442    2.3964 H   0  0  0  0  0  0  0  0  0  0  0  0
   -4.9024   -0.6003    1.0880 H   0  0  0  0  0  0  0  0  0  0  0  0
   -0.9105   -4.7356   -1.3114 H   0  0  0  0  0  0  0  0  0  0  0  0
   -1.8093   -4.3695    0.0015 H   0  0  0  0  0  0  0  0  0  0  0  0
    2.2321   -4.5020   -1.2877 H   0  0  0  0  0  0  0  0  0  0  0  0
    3.0324   -4.0254    0.0528 H   0  0  0  0  0  0  0  0  0  0  0  0
    1.7023    2.1873   -0.8553 H   0  0  0  0  0  0  0  0  0  0  0  0
    1.8750    3.6545    0.1076 H   0  0  0  0  0  0  0  0  0  0  0  0
    3.8100    0.5603   -0.9967 H   0  0  0  0  0  0  0  0  0  0  0  0
    1.3437   -3.2475    2.5910 H   0  0  0  0  0  0  0  0  0  0  0  0
    4.1864    3.1357    0.6335 H   0  0  0  0  0  0  0  0  0  0  0  0
    3.9650    3.0548   -1.1188 H   0  0  0  0  0  0  0  0  0  0  0  0
   -4.4823    3.6500    0.3530 H   0  0  0  0  0  0  0  0  0  0  0  0
   -4.7929    3.0392    1.9653 H   0  0  0  0  0  0  0  0  0  0  0  0
   -3.1938    2.8186    1.2517 H   0  0  0  0  0  0  0  0  0  0  0  0
   -5.9489    0.3482   -1.4766 H   0  0  0  0  0  0  0  0  0  0  0  0
    6.1572    1.5592    0.6828 H   0  0  0  0  0  0  0  0  0  0  0  0
    6.0674    0.0243   -0.1658 H   0  0  0  0  0  0  0  0  0  0  0  0
   -2.0226    2.5882   -1.3443 H   0  0  0  0  0  0  0  0  0  0  0  0
   -6.5326    1.6725    1.2503 H   0  0  0  0  0  0  0  0  0  0  0  0
    0.1404    1.3324    2.3398 H   0  0  0  0  0  0  0  0  0  0  0  0
    0.0180    2.7575    1.5514 H   0  0  0  0  0  0  0  0  0  0  0  0
   -5.4239   -0.3726   -3.6411 H   0  0  0  0  0  0  0  0  0  0  0  0
   -5.1109    1.3557   -3.4890 H   0  0  0  0  0  0  0  0  0  0  0  0
   -3.7691    0.1821   -3.4661 H   0  0  0  0  0  0  0  0  0  0  0  0
    5.8508    1.2400   -2.2380 H   0  0  0  0  0  0  0  0  0  0  0  0
    8.0296    2.1725   -2.3888 H   0  0  0  0  0  0  0  0  0  0  0  0
    8.0642    0.6495   -1.4872 H   0  0  0  0  0  0  0  0  0  0  0  0
    8.1298    2.2113   -0.6269 H   0  0  0  0  0  0  0  0  0  0  0  0
  1 13  1  0  0  0  0
  1 19  1  0  0  0  0
  2 14  1  0  0  0  0
  2 23  1  0  0  0  0
  3 19  1  0  0  0  0
  3 25  1  0  0  0  0
  4 15  1  0  0  0  0
  4 54  1  0  0  0  0
  5 23  1  0  0  0  0
  5 27  1  0  0  0  0
  6 21  1  0  0  0  0
  6 63  1  0  0  0  0
  7 22  1  0  0  0  0
  7 64  1  0  0  0  0
  8 16  1  0  0  0  0
  8 47  1  0  0  0  0
  8 48  1  0  0  0  0
  9 17  1  0  0  0  0
  9 49  1  0  0  0  0
  9 50  1  0  0  0  0
 10 20  1  0  0  0  0
 10 31  1  0  0  0  0
 10 60  1  0  0  0  0
 11 24  1  0  0  0  0
 11 65  1  0  0  0  0
 11 66  1  0  0  0  0
 12 30  1  0  0  0  0
 12 32  1  0  0  0  0
 12 70  1  0  0  0  0
 13 15  1  0  0  0  0
 13 16  1  0  0  0  0
 13 33  1  0  0  0  0
 14 15  1  0  0  0  0
 14 17  1  0  0  0  0
 14 34  1  0  0  0  0
 15 35  1  0  0  0  0
 16 18  1  0  0  0  0
 16 36  1  0  0  0  0
 17 18  1  0  0  0  0
 17 37  1  0  0  0  0
 18 38  1  0  0  0  0
 18 39  1  0  0  0  0
 19 21  1  0  0  0  0
 19 40  1  0  0  0  0
 20 21  1  0  0  0  0
 20 22  1  0  0  0  0
 20 41  1  0  0  0  0
 21 42  1  0  0  0  0
 22 25  1  0  0  0  0
 22 29  1  0  0  0  0
 23 24  1  0  0  0  0
 23 43  1  0  0  0  0
 24 26  1  0  0  0  0
 24 44  1  0  0  0  0
 25 45  1  0  0  0  0
 25 46  1  0  0  0  0
 26 28  1  0  0  0  0
 26 51  1  0  0  0  0
 26 52  1  0  0  0  0
 27 28  1  0  0  0  0
 27 30  1  0  0  0  0
 27 53  1  0  0  0  0
 28 55  1  0  0  0  0
 28 56  1  0  0  0  0
 29 57  1  0  0  0  0
 29 58  1  0  0  0  0
 29 59  1  0  0  0  0
 30 61  1  0  0  0  0
 30 62  1  0  0  0  0
 31 67  1  0  0  0  0
 31 68  1  0  0  0  0
 31 69  1  0  0  0  0
 32 71  1  0  0  0  0
 32 72  1  0  0  0  0
 32 73  1  0  0  0  0
M  END
> <DATABASE_ID>
DB13274

> <DATABASE_NAME>
drugbank

> <ORIGINAL_SOURCE>
PUBCHEM

> <ORIGINAL_SOURCE_URL>
https://pubchem.ncbi.nlm.nih.gov/rest/pug/compound/inchikey/DNYGXMICFMACRA-XHEDQWPISA-N/SDF?record_type=3d

> <SMILES>
CNC[C@@H]1CC[C@@H](N)[C@@H](O[C@@H]2[C@@H](N)C[C@@H](N)[C@H](O[C@H]3OC[C@](C)(O)[C@H](NC)[C@H]3O)[C@H]2O)O1

> <INCHI_IDENTIFIER>
InChI=1S/C20H41N5O7/c1-20(28)8-29-19(14(27)17(20)25-3)32-16-12(23)6-11(22)15(13(16)26)31-18-10(21)5-4-9(30-18)7-24-2/h9-19,24-28H,4-8,21-23H2,1-3H3/t9-,10+,11-,12+,13-,14+,15+,16-,17+,18+,19+,20-/m0/s1

> <INCHI_KEY>
DNYGXMICFMACRA-XHEDQWPISA-N

> <FORMULA>
C20H41N5O7

> <MOLECULAR_WEIGHT>
463.576

> <EXACT_MASS>
463.30059868

> <JCHEM_ACCEPTOR_COUNT>
12

> <JCHEM_ATOM_COUNT>
73

> <JCHEM_AVERAGE_POLARIZABILITY>
49.66129412670688

> <JCHEM_BIOAVAILABILITY>
0

> <JCHEM_DONOR_COUNT>
8

> <JCHEM_FORMAL_CHARGE>
0

> <JCHEM_GHOSE_FILTER>
0

> <JCHEM_IUPAC>
(2R,3R,4R,5R)-2-{[(1S,2S,3R,4S,6R)-4,6-diamino-3-{[(2R,3R,6S)-3-amino-6-[(methylamino)methyl]oxan-2-yl]oxy}-2-hydroxycyclohexyl]oxy}-5-methyl-4-(methylamino)oxane-3,5-diol

> <ALOGPS_LOGP>
-1.84

> <JCHEM_LOGP>
-3.5537305539999995

> <ALOGPS_LOGS>
-1.42

> <JCHEM_MDDR_LIKE_RULE>
1

> <JCHEM_NUMBER_OF_RINGS>
3

> <JCHEM_PHYSIOLOGICAL_CHARGE>
5

> <JCHEM_PKA>
13.159314888955901

> <JCHEM_PKA_STRONGEST_ACIDIC>
12.548824540405306

> <JCHEM_PKA_STRONGEST_BASIC>
10.062735189141732

> <JCHEM_POLAR_SURFACE_AREA>
199.73000000000002

> <JCHEM_REFRACTIVITY>
113.60189999999997

> <JCHEM_ROTATABLE_BOND_COUNT>
7

> <JCHEM_RULE_OF_FIVE>
0

> <ALOGPS_SOLUBILITY>
1.75e+01 g/l

> <JCHEM_TRADITIONAL_IUPAC>
(2R,3R,4R,5R)-2-{[(1S,2S,3R,4S,6R)-4,6-diamino-3-{[(2R,3R,6S)-3-amino-6-[(methylamino)methyl]oxan-2-yl]oxy}-2-hydroxycyclohexyl]oxy}-5-methyl-4-(methylamino)oxane-3,5-diol

> <JCHEM_VEBER_RULE>
0

$$$$
62858
  -OEChem-01012018463D

 34 34  0     1  0  0  0  0  0999 V2000
    0.2154   -0.3955    2.0109 O   0  0  0  0  0  0  0  0  0  0  0  0
    0.6943    2.5897   -1.0503 O   0  0  0  0  0  0  0  0  0  0  0  0
    3.1323   -1.0771   -1.2686 O   0  0  0  0  0  0  0  0  0  0  0  0
   -6.4572    0.3869   -0.1061 O   0  5  0  0  0  0  0  0  0  0  0  0
   -5.9293   -1.6337   -0.7823 O   0  0  0  0  0  0  0  0  0  0  0  0
    2.1919    0.4422    0.2119 N   0  0  0  0  0  0  0  0  0  0  0  0
   -5.6098   -0.5159   -0.3098 N   0  3  0  0  0  0  0  0  0  0  0  0
    5.6115   -0.6828   -0.3502 N   0  0  0  0  0  0  0  0  0  0  0  0
    6.7653   -0.4989    0.0824 N   0  3  0  0  0  0  0  0  0  0  0  0
    7.8233   -0.3336    0.4754 N   0  5  0  0  0  0  0  0  0  0  0  0
    0.8224    0.2863   -0.2401 C   0  0  1  0  0  0  0  0  0  0  0  0
   -0.1419    0.4938    0.9477 C   0  0  1  0  0  0  0  0  0  0  0  0
   -1.5919    0.2255    0.6144 C   0  0  0  0  0  0  0  0  0  0  0  0
    0.5683    1.2242   -1.4261 C   0  0  0  0  0  0  0  0  0  0  0  0
   -2.5318    1.2177    0.8367 C   0  0  0  0  0  0  0  0  0  0  0  0
   -1.9504   -1.0064    0.0933 C   0  0  0  0  0  0  0  0  0  0  0  0
    3.2383   -0.2653   -0.3530 C   0  0  0  0  0  0  0  0  0  0  0  0
   -3.8698    0.9706    0.5289 C   0  0  0  0  0  0  0  0  0  0  0  0
   -3.2883   -1.2533   -0.2146 C   0  0  0  0  0  0  0  0  0  0  0  0
   -4.2480   -0.2649    0.0032 C   0  0  0  0  0  0  0  0  0  0  0  0
    4.5554    0.0907    0.2964 C   0  0  0  0  0  0  0  0  0  0  0  0
    0.7354   -0.7448   -0.6040 H   0  0  0  0  0  0  0  0  0  0  0  0
   -0.0263    1.5101    1.3447 H   0  0  0  0  0  0  0  0  0  0  0  0
    1.2892    1.0315   -2.2285 H   0  0  0  0  0  0  0  0  0  0  0  0
   -0.4354    1.0728   -1.8359 H   0  0  0  0  0  0  0  0  0  0  0  0
    2.3904    1.1467    0.9170 H   0  0  0  0  0  0  0  0  0  0  0  0
   -2.2492    2.1837    1.2447 H   0  0  0  0  0  0  0  0  0  0  0  0
   -1.2200   -1.7927   -0.0709 H   0  0  0  0  0  0  0  0  0  0  0  0
    1.1498   -0.2333    2.2255 H   0  0  0  0  0  0  0  0  0  0  0  0
   -4.5899    1.7641    0.7117 H   0  0  0  0  0  0  0  0  0  0  0  0
   -3.5468   -2.2283   -0.6199 H   0  0  0  0  0  0  0  0  0  0  0  0
    0.5196    3.1220   -1.8452 H   0  0  0  0  0  0  0  0  0  0  0  0
    4.4997   -0.1476    1.3649 H   0  0  0  0  0  0  0  0  0  0  0  0
    4.7332    1.1653    0.1735 H   0  0  0  0  0  0  0  0  0  0  0  0
  1 12  1  0  0  0  0
  1 29  1  0  0  0  0
  2 14  1  0  0  0  0
  2 32  1  0  0  0  0
  3 17  2  0  0  0  0
  4  7  1  0  0  0  0
  5  7  2  0  0  0  0
  6 11  1  0  0  0  0
  6 17  1  0  0  0  0
  6 26  1  0  0  0  0
  7 20  1  0  0  0  0
  8  9  2  0  0  0  0
  8 21  1  0  0  0  0
  9 10  2  0  0  0  0
 11 12  1  0  0  0  0
 11 14  1  0  0  0  0
 11 22  1  0  0  0  0
 12 13  1  0  0  0  0
 12 23  1  0  0  0  0
 13 15  2  0  0  0  0
 13 16  1  0  0  0  0
 14 24  1  0  0  0  0
 14 25  1  0  0  0  0
 15 18  1  0  0  0  0
 15 27  1  0  0  0  0
 16 19  2  0  0  0  0
 16 28  1  0  0  0  0
 17 21  1  0  0  0  0
 18 20  2  0  0  0  0
 18 30  1  0  0  0  0
 19 20  1  0  0  0  0
 19 31  1  0  0  0  0
 21 33  1  0  0  0  0
 21 34  1  0  0  0  0
M  CHG  4   4  -1   7   1   9   1  10  -1
M  END
> <DATABASE_ID>
DB13294

> <DATABASE_NAME>
drugbank

> <ORIGINAL_SOURCE>
PUBCHEM

> <ORIGINAL_SOURCE_URL>
https://pubchem.ncbi.nlm.nih.gov/rest/pug/compound/inchikey/SGRUZFCHLOFYHZ-MWLCHTKSSA-N/SDF?record_type=3d

> <SMILES>
OC[C@@H](NC(=O)CN=[N+]=[N-])[C@H](O)C1=CC=C(C=C1)[N+]([O-])=O

> <INCHI_IDENTIFIER>
InChI=1S/C11H13N5O5/c12-15-13-5-10(18)14-9(6-17)11(19)7-1-3-8(4-2-7)16(20)21/h1-4,9,11,17,19H,5-6H2,(H,14,18)/t9-,11-/m1/s1

> <INCHI_KEY>
SGRUZFCHLOFYHZ-MWLCHTKSSA-N

> <FORMULA>
C11H13N5O5

> <MOLECULAR_WEIGHT>
295.255

> <EXACT_MASS>
295.091668539

> <JCHEM_ACCEPTOR_COUNT>
7

> <JCHEM_ATOM_COUNT>
34

> <JCHEM_AVERAGE_NEUTRAL_MICROSPECIES_CHARGE>
-1.1870907663302788e-05

> <JCHEM_AVERAGE_POLARIZABILITY>
26.90979333830332

> <JCHEM_BIOAVAILABILITY>
1

> <JCHEM_DONOR_COUNT>
3

> <JCHEM_FORMAL_CHARGE>
0

> <JCHEM_GHOSE_FILTER>
1

> <JCHEM_IUPAC>
2-azido-N-[(1R,2R)-1,3-dihydroxy-1-(4-nitrophenyl)propan-2-yl]acetamide

> <ALOGPS_LOGP>
0.74

> <JCHEM_LOGP>
-0.39972845466666634

> <ALOGPS_LOGS>
-2.39

> <JCHEM_MDDR_LIKE_RULE>
0

> <JCHEM_NEUTRAL_CHARGE>
0

> <JCHEM_NUMBER_OF_RINGS>
1

> <JCHEM_PHYSIOLOGICAL_CHARGE>
0

> <JCHEM_PKA>
13.559621722342207

> <JCHEM_PKA_STRONGEST_ACIDIC>
11.936256515682805

> <JCHEM_PKA_STRONGEST_BASIC>
-2.794834475546165

> <JCHEM_POLAR_SURFACE_AREA>
142.13

> <JCHEM_REFRACTIVITY>
70.2154

> <JCHEM_ROTATABLE_BOND_COUNT>
7

> <JCHEM_RULE_OF_FIVE>
1

> <ALOGPS_SOLUBILITY>
1.22e+00 g/l

> <JCHEM_TRADITIONAL_IUPAC>
meladrazine

> <JCHEM_VEBER_RULE>
0

$$$$
272833
  -OEChem-03261822583D

 45 47  0     1  0  0  0  0  0999 V2000
    2.3727    0.7956    1.9292 S   0  0  0  0  0  0  0  0  0  0  0  0
    1.1671   -0.0745   -2.2182 O   0  0  0  0  0  0  0  0  0  0  0  0
    4.9262   -2.4094   -0.4609 O   0  0  0  0  0  0  0  0  0  0  0  0
    4.9424   -0.5625   -1.7970 O   0  0  0  0  0  0  0  0  0  0  0  0
   -1.4228    1.5687   -1.6474 O   0  0  0  0  0  0  0  0  0  0  0  0
   -3.6335    1.1331   -0.2192 O   0  0  0  0  0  0  0  0  0  0  0  0
    2.8047    0.4671   -0.6072 N   0  0  0  0  0  0  0  0  0  0  0  0
   -0.0442    1.6078    0.2190 N   0  0  0  0  0  0  0  0  0  0  0  0
    2.5239    1.5927    0.2889 C   0  0  1  0  0  0  0  0  0  0  0  0
    3.6022   -0.5180    1.4470 C   0  0  0  0  0  0  0  0  0  0  0  0
    3.2956   -0.7744   -0.0442 C   0  0  2  0  0  0  0  0  0  0  0  0
    1.2234    1.8097   -0.4967 C   0  0  1  0  0  0  0  0  0  0  0  0
    1.6638    0.5998   -1.3447 C   0  0  0  0  0  0  0  0  0  0  0  0
    5.0096    0.0284    1.7232 C   0  0  0  0  0  0  0  0  0  0  0  0
    3.3506   -1.7687    2.2912 C   0  0  0  0  0  0  0  0  0  0  0  0
    4.4643   -1.2033   -0.8727 C   0  0  0  0  0  0  0  0  0  0  0  0
   -1.2755    1.5033   -0.4289 C   0  0  0  0  0  0  0  0  0  0  0  0
   -2.4371    1.2774    0.5278 C   0  0  1  0  0  0  0  0  0  0  0  0
   -2.6048    2.4572    1.4720 C   0  0  0  0  0  0  0  0  0  0  0  0
   -4.3074   -0.0553   -0.0901 C   0  0  0  0  0  0  0  0  0  0  0  0
   -3.6769   -1.2433   -0.4385 C   0  0  0  0  0  0  0  0  0  0  0  0
   -5.6122   -0.0556    0.3871 C   0  0  0  0  0  0  0  0  0  0  0  0
   -4.3622   -2.4511   -0.3078 C   0  0  0  0  0  0  0  0  0  0  0  0
   -6.2975   -1.2635    0.5177 C   0  0  0  0  0  0  0  0  0  0  0  0
   -5.6725   -2.4612    0.1702 C   0  0  0  0  0  0  0  0  0  0  0  0
    3.2687    2.3903    0.2139 H   0  0  0  0  0  0  0  0  0  0  0  0
    2.5021   -1.5231   -0.1718 H   0  0  0  0  0  0  0  0  0  0  0  0
    1.2122    2.7445   -1.0698 H   0  0  0  0  0  0  0  0  0  0  0  0
    5.2425    0.9046    1.1078 H   0  0  0  0  0  0  0  0  0  0  0  0
    5.1279    0.3165    2.7746 H   0  0  0  0  0  0  0  0  0  0  0  0
    5.7760   -0.7271    1.5173 H   0  0  0  0  0  0  0  0  0  0  0  0
    3.4764   -1.5633    3.3609 H   0  0  0  0  0  0  0  0  0  0  0  0
    2.3383   -2.1628    2.1439 H   0  0  0  0  0  0  0  0  0  0  0  0
    4.0527   -2.5685    2.0327 H   0  0  0  0  0  0  0  0  0  0  0  0
   -0.0292    1.5103    1.2312 H   0  0  0  0  0  0  0  0  0  0  0  0
   -2.2145    0.3835    1.1263 H   0  0  0  0  0  0  0  0  0  0  0  0
    5.6947   -2.7084   -0.9921 H   0  0  0  0  0  0  0  0  0  0  0  0
   -2.7511    3.3873    0.9107 H   0  0  0  0  0  0  0  0  0  0  0  0
   -1.7401    2.5915    2.1284 H   0  0  0  0  0  0  0  0  0  0  0  0
   -3.4931    2.3231    2.0991 H   0  0  0  0  0  0  0  0  0  0  0  0
   -2.6603   -1.2486   -0.8211 H   0  0  0  0  0  0  0  0  0  0  0  0
   -6.1018    0.8750    0.6590 H   0  0  0  0  0  0  0  0  0  0  0  0
   -3.8765   -3.3834   -0.5804 H   0  0  0  0  0  0  0  0  0  0  0  0
   -7.3177   -1.2715    0.8899 H   0  0  0  0  0  0  0  0  0  0  0  0
   -6.2063   -3.4016    0.2715 H   0  0  0  0  0  0  0  0  0  0  0  0
  1  9  1  0  0  0  0
  1 10  1  0  0  0  0
  2 13  2  0  0  0  0
  3 16  1  0  0  0  0
  3 37  1  0  0  0  0
  4 16  2  0  0  0  0
  5 17  2  0  0  0  0
  6 18  1  0  0  0  0
  6 20  1  0  0  0  0
  7  9  1  0  0  0  0
  7 11  1  0  0  0  0
  7 13  1  0  0  0  0
  8 12  1  0  0  0  0
  8 17  1  0  0  0  0
  8 35  1  0  0  0  0
  9 12  1  0  0  0  0
  9 26  1  0  0  0  0
 10 11  1  0  0  0  0
 10 14  1  0  0  0  0
 10 15  1  0  0  0  0
 11 16  1  0  0  0  0
 11 27  1  0  0  0  0
 12 13  1  0  0  0  0
 12 28  1  0  0  0  0
 14 29  1  0  0  0  0
 14 30  1  0  0  0  0
 14 31  1  0  0  0  0
 15 32  1  0  0  0  0
 15 33  1  0  0  0  0
 15 34  1  0  0  0  0
 17 18  1  0  0  0  0
 18 19  1  0  0  0  0
 18 36  1  0  0  0  0
 19 38  1  0  0  0  0
 19 39  1  0  0  0  0
 19 40  1  0  0  0  0
 20 21  2  0  0  0  0
 20 22  1  0  0  0  0
 21 23  1  0  0  0  0
 21 41  1  0  0  0  0
 22 24  2  0  0  0  0
 22 42  1  0  0  0  0
 23 25  2  0  0  0  0
 23 43  1  0  0  0  0
 24 25  1  0  0  0  0
 24 44  1  0  0  0  0
 25 45  1  0  0  0  0
M  END
> <DATABASE_ID>
DB13337

> <DATABASE_NAME>
drugbank

> <ORIGINAL_SOURCE>
PUBCHEM

> <ORIGINAL_SOURCE_URL>
https://pubchem.ncbi.nlm.nih.gov/rest/pug/compound/inchikey/NONJJLVGHLVQQM-JHXYUMNGSA-N/SDF?record_type=3d

> <SMILES>
[H][C@]12SC(C)(C)[C@@H](N1C(=O)[C@H]2NC(=O)C(C)OC1=CC=CC=C1)C(O)=O

> <INCHI_IDENTIFIER>
InChI=1S/C17H20N2O5S/c1-9(24-10-7-5-4-6-8-10)13(20)18-11-14(21)19-12(16(22)23)17(2,3)25-15(11)19/h4-9,11-12,15H,1-3H3,(H,18,20)(H,22,23)/t9?,11-,12+,15-/m1/s1

> <INCHI_KEY>
NONJJLVGHLVQQM-JHXYUMNGSA-N

> <FORMULA>
C17H20N2O5S

> <MOLECULAR_WEIGHT>
364.42

> <EXACT_MASS>
364.109292926

> <JCHEM_ACCEPTOR_COUNT>
5

> <JCHEM_ATOM_COUNT>
45

> <JCHEM_AVERAGE_POLARIZABILITY>
36.74480920508262

> <JCHEM_BIOAVAILABILITY>
1

> <JCHEM_DONOR_COUNT>
2

> <JCHEM_FORMAL_CHARGE>
0

> <JCHEM_GHOSE_FILTER>
1

> <JCHEM_IUPAC>
(2S,5R,6R)-3,3-dimethyl-7-oxo-6-(2-phenoxypropanamido)-4-thia-1-azabicyclo[3.2.0]heptane-2-carboxylic acid

> <ALOGPS_LOGP>
2.22

> <JCHEM_LOGP>
1.3320059486666669

> <ALOGPS_LOGS>
-3.01

> <JCHEM_MDDR_LIKE_RULE>
0

> <JCHEM_NUMBER_OF_RINGS>
3

> <JCHEM_PHYSIOLOGICAL_CHARGE>
-1

> <JCHEM_PKA>
11.777695766254167

> <JCHEM_PKA_STRONGEST_ACIDIC>
3.4715115673791264

> <JCHEM_PKA_STRONGEST_BASIC>
-4.881369462504333

> <JCHEM_POLAR_SURFACE_AREA>
95.94000000000001

> <JCHEM_REFRACTIVITY>
90.26190000000003

> <JCHEM_ROTATABLE_BOND_COUNT>
5

> <JCHEM_RULE_OF_FIVE>
1

> <ALOGPS_SOLUBILITY>
3.56e-01 g/l

> <JCHEM_TRADITIONAL_IUPAC>
phenethicillin

> <JCHEM_VEBER_RULE>
0

$$$$
4628
  -OEChem-10061700263D

 30 32  0     0  0  0  0  0  0999 V2000
   -4.0523    0.6245    0.1367 O   0  0  0  0  0  0  0  0  0  0  0  0
   -3.6816   -1.7335   -0.1849 O   0  0  0  0  0  0  0  0  0  0  0  0
    1.4100   -2.4292   -0.2596 O   0  0  0  0  0  0  0  0  0  0  0  0
    3.8788   -1.9272    0.4619 O   0  0  0  0  0  0  0  0  0  0  0  0
    4.6461    0.0412   -0.4139 O   0  0  0  0  0  0  0  0  0  0  0  0
    0.7730    1.5661    0.2854 N   0  0  0  0  0  0  0  0  0  0  0  0
   -0.3588    0.7231    0.1655 C   0  0  0  0  0  0  0  0  0  0  0  0
   -0.1684   -0.6777   -0.0256 C   0  0  0  0  0  0  0  0  0  0  0  0
   -1.6817    1.2038    0.2255 C   0  0  0  0  0  0  0  0  0  0  0  0
    0.5636    2.9988    0.4807 C   0  0  0  0  0  0  0  0  0  0  0  0
   -2.7282    0.3086    0.0986 C   0  0  0  0  0  0  0  0  0  0  0  0
   -2.5182   -1.0351   -0.0846 C   0  0  0  0  0  0  0  0  0  0  0  0
   -1.2493   -1.5643   -0.1517 C   0  0  0  0  0  0  0  0  0  0  0  0
    2.0406    1.0180    0.2155 C   0  0  0  0  0  0  0  0  0  0  0  0
    1.2100   -1.2320   -0.0957 C   0  0  0  0  0  0  0  0  0  0  0  0
    2.3343   -0.2750    0.0401 C   0  0  0  0  0  0  0  0  0  0  0  0
   -4.6505   -0.6750   -0.0440 C   0  0  0  0  0  0  0  0  0  0  0  0
    0.4896    3.7340   -0.8417 C   0  0  0  0  0  0  0  0  0  0  0  0
    3.7430   -0.6691   -0.0081 C   0  0  0  0  0  0  0  0  0  0  0  0
   -1.9255    2.2521    0.3517 H   0  0  0  0  0  0  0  0  0  0  0  0
   -0.2965    3.2278    1.1185 H   0  0  0  0  0  0  0  0  0  0  0  0
    1.4149    3.4105    1.0407 H   0  0  0  0  0  0  0  0  0  0  0  0
   -1.1079   -2.6298   -0.2970 H   0  0  0  0  0  0  0  0  0  0  0  0
    2.8228    1.7638    0.3211 H   0  0  0  0  0  0  0  0  0  0  0  0
   -5.2776   -0.6511   -0.9427 H   0  0  0  0  0  0  0  0  0  0  0  0
   -5.2853   -0.8930    0.8225 H   0  0  0  0  0  0  0  0  0  0  0  0
    1.3992    3.5805   -1.4320 H   0  0  0  0  0  0  0  0  0  0  0  0
   -0.3586    3.3933   -1.4438 H   0  0  0  0  0  0  0  0  0  0  0  0
    0.3742    4.8092   -0.6728 H   0  0  0  0  0  0  0  0  0  0  0  0
    4.8124   -2.2282    0.4452 H   0  0  0  0  0  0  0  0  0  0  0  0
  1 11  1  0  0  0  0
  1 17  1  0  0  0  0
  2 12  1  0  0  0  0
  2 17  1  0  0  0  0
  3 15  2  0  0  0  0
  4 19  1  0  0  0  0
  4 30  1  0  0  0  0
  5 19  2  0  0  0  0
  6  7  1  0  0  0  0
  6 10  1  0  0  0  0
  6 14  1  0  0  0  0
  7  8  1  0  0  0  0
  7  9  2  0  0  0  0
  8 13  2  0  0  0  0
  8 15  1  0  0  0  0
  9 11  1  0  0  0  0
  9 20  1  0  0  0  0
 10 18  1  0  0  0  0
 10 21  1  0  0  0  0
 10 22  1  0  0  0  0
 11 12  2  0  0  0  0
 12 13  1  0  0  0  0
 13 23  1  0  0  0  0
 14 16  2  0  0  0  0
 14 24  1  0  0  0  0
 15 16  1  0  0  0  0
 16 19  1  0  0  0  0
 17 25  1  0  0  0  0
 17 26  1  0  0  0  0
 18 27  1  0  0  0  0
 18 28  1  0  0  0  0
 18 29  1  0  0  0  0
M  END
> <DATABASE_ID>
DB13627

> <DATABASE_NAME>
drugbank

> <ORIGINAL_SOURCE>
PUBCHEM

> <ORIGINAL_SOURCE_URL>
https://pubchem.ncbi.nlm.nih.gov/rest/pug/compound/inchikey/KYGZCKSPAKDVKC-UHFFFAOYSA-N/SDF?record_type=3d

> <SMILES>
CCN1C=C(C(O)=O)C(=O)C2=CC3=C(OCO3)C=C12

> <INCHI_IDENTIFIER>
InChI=1S/C13H11NO5/c1-2-14-5-8(13(16)17)12(15)7-3-10-11(4-9(7)14)19-6-18-10/h3-5H,2,6H2,1H3,(H,16,17)

> <INCHI_KEY>
KYGZCKSPAKDVKC-UHFFFAOYSA-N

> <FORMULA>
C13H11NO5

> <MOLECULAR_WEIGHT>
261.2301

> <EXACT_MASS>
261.063722467

> <JCHEM_ACCEPTOR_COUNT>
6

> <JCHEM_AVERAGE_POLARIZABILITY>
25.521229530139497

> <JCHEM_BIOAVAILABILITY>
1

> <JCHEM_DONOR_COUNT>
1

> <JCHEM_FORMAL_CHARGE>
0

> <JCHEM_GHOSE_FILTER>
1

> <JCHEM_IUPAC>
5-ethyl-8-oxo-2H,5H,8H-[1,3]dioxolo[4,5-g]quinoline-7-carboxylic acid

> <ALOGPS_LOGP>
0.86

> <JCHEM_LOGP>
1.3531468610000004

> <ALOGPS_LOGS>
-2.14

> <JCHEM_MDDR_LIKE_RULE>
0

> <JCHEM_NUMBER_OF_RINGS>
3

> <JCHEM_PHYSIOLOGICAL_CHARGE>
-1

> <JCHEM_PKA_STRONGEST_ACIDIC>
5.579866110343406

> <JCHEM_PKA_STRONGEST_BASIC>
-4.282722549478013

> <JCHEM_POLAR_SURFACE_AREA>
76.07000000000001

> <JCHEM_REFRACTIVITY>
65.84330000000001

> <JCHEM_ROTATABLE_BOND_COUNT>
2

> <JCHEM_RULE_OF_FIVE>
1

> <ALOGPS_SOLUBILITY>
1.91e+00 g/l

> <JCHEM_TRADITIONAL_IUPAC>
ossian

> <JCHEM_VEBER_RULE>
0

$$$$
4855
  -OEChem-10061700293D

 37 39  0     0  0  0  0  0  0999 V2000
    2.5675   -2.3288   -0.2844 O   0  0  0  0  0  0  0  0  0  0  0  0
    4.8708   -1.3240    0.5099 O   0  0  0  0  0  0  0  0  0  0  0  0
    5.2286    0.7734   -0.3287 O   0  0  0  0  0  0  0  0  0  0  0  0
   -3.3196   -0.2715    0.0201 N   0  0  0  0  0  0  0  0  0  0  0  0
    1.0989    1.4224    0.2713 N   0  0  0  0  0  0  0  0  0  0  0  0
   -1.1652    0.5729    0.1454 N   0  0  0  0  0  0  0  0  0  0  0  0
   -1.5762   -1.7773   -0.2021 N   0  0  0  0  0  0  0  0  0  0  0  0
   -5.3943    0.8260   -0.1251 C   0  0  0  0  0  0  0  0  0  0  0  0
   -5.6312   -0.6189    0.2785 C   0  0  0  0  0  0  0  0  0  0  0  0
   -3.9222    1.0447    0.2161 C   0  0  0  0  0  0  0  0  0  0  0  0
   -4.3342   -1.3113   -0.1339 C   0  0  0  0  0  0  0  0  0  0  0  0
   -1.9615   -0.5040   -0.0139 C   0  0  0  0  0  0  0  0  0  0  0  0
    0.1741    0.3578    0.1137 C   0  0  0  0  0  0  0  0  0  0  0  0
    0.6705   -0.9359   -0.0775 C   0  0  0  0  0  0  0  0  0  0  0  0
    0.5307    2.7495    0.4679 C   0  0  0  0  0  0  0  0  0  0  0  0
   -0.2441   -1.9649   -0.2296 C   0  0  0  0  0  0  0  0  0  0  0  0
    2.4563    1.1714    0.2353 C   0  0  0  0  0  0  0  0  0  0  0  0
    2.1277   -1.1989   -0.1159 C   0  0  0  0  0  0  0  0  0  0  0  0
    3.0245   -0.0278    0.0581 C   0  0  0  0  0  0  0  0  0  0  0  0
    0.3143    3.4615   -0.8514 C   0  0  0  0  0  0  0  0  0  0  0  0
    4.4846   -0.1162    0.0461 C   0  0  0  0  0  0  0  0  0  0  0  0
   -5.5509    0.9421   -1.2044 H   0  0  0  0  0  0  0  0  0  0  0  0
   -6.0530    1.5278    0.3940 H   0  0  0  0  0  0  0  0  0  0  0  0
   -5.7634   -0.6856    1.3652 H   0  0  0  0  0  0  0  0  0  0  0  0
   -6.5106   -1.0576   -0.2011 H   0  0  0  0  0  0  0  0  0  0  0  0
   -3.4859    1.8078   -0.4374 H   0  0  0  0  0  0  0  0  0  0  0  0
   -3.8066    1.3566    1.2603 H   0  0  0  0  0  0  0  0  0  0  0  0
   -4.1445   -2.1813    0.5039 H   0  0  0  0  0  0  0  0  0  0  0  0
   -4.3814   -1.6350   -1.1798 H   0  0  0  0  0  0  0  0  0  0  0  0
   -0.4025    2.7215    1.0440 H   0  0  0  0  0  0  0  0  0  0  0  0
    1.2173    3.3529    1.0766 H   0  0  0  0  0  0  0  0  0  0  0  0
    0.0648   -2.9937   -0.3816 H   0  0  0  0  0  0  0  0  0  0  0  0
    3.0507    2.0697    0.3699 H   0  0  0  0  0  0  0  0  0  0  0  0
    1.2524    3.5576   -1.4082 H   0  0  0  0  0  0  0  0  0  0  0  0
   -0.3955    2.9199   -1.4852 H   0  0  0  0  0  0  0  0  0  0  0  0
   -0.0833    4.4669   -0.6808 H   0  0  0  0  0  0  0  0  0  0  0  0
    5.8469   -1.4213    0.5166 H   0  0  0  0  0  0  0  0  0  0  0  0
  1 18  2  0  0  0  0
  2 21  1  0  0  0  0
  2 37  1  0  0  0  0
  3 21  2  0  0  0  0
  4 10  1  0  0  0  0
  4 11  1  0  0  0  0
  4 12  1  0  0  0  0
  5 13  1  0  0  0  0
  5 15  1  0  0  0  0
  5 17  1  0  0  0  0
  6 12  1  0  0  0  0
  6 13  2  0  0  0  0
  7 12  2  0  0  0  0
  7 16  1  0  0  0  0
  8  9  1  0  0  0  0
  8 10  1  0  0  0  0
  8 22  1  0  0  0  0
  8 23  1  0  0  0  0
  9 11  1  0  0  0  0
  9 24  1  0  0  0  0
  9 25  1  0  0  0  0
 10 26  1  0  0  0  0
 10 27  1  0  0  0  0
 11 28  1  0  0  0  0
 11 29  1  0  0  0  0
 13 14  1  0  0  0  0
 14 16  2  0  0  0  0
 14 18  1  0  0  0  0
 15 20  1  0  0  0  0
 15 30  1  0  0  0  0
 15 31  1  0  0  0  0
 16 32  1  0  0  0  0
 17 19  2  0  0  0  0
 17 33  1  0  0  0  0
 18 19  1  0  0  0  0
 19 21  1  0  0  0  0
 20 34  1  0  0  0  0
 20 35  1  0  0  0  0
 20 36  1  0  0  0  0
M  END
> <DATABASE_ID>
DB13744

> <DATABASE_NAME>
drugbank

> <ORIGINAL_SOURCE>
PUBCHEM

> <ORIGINAL_SOURCE_URL>
https://pubchem.ncbi.nlm.nih.gov/rest/pug/compound/inchikey/RCIMBBZXSXFZBV-UHFFFAOYSA-N/SDF?record_type=3d

> <SMILES>
CCN1C=C(C(O)=O)C(=O)C2=CN=C(N=C12)N1CCCC1

> <INCHI_IDENTIFIER>
InChI=1S/C14H16N4O3/c1-2-17-8-10(13(20)21)11(19)9-7-15-14(16-12(9)17)18-5-3-4-6-18/h7-8H,2-6H2,1H3,(H,20,21)

> <INCHI_KEY>
RCIMBBZXSXFZBV-UHFFFAOYSA-N

> <FORMULA>
C14H16N4O3

> <MOLECULAR_WEIGHT>
288.307

> <EXACT_MASS>
288.122240391

> <JCHEM_ACCEPTOR_COUNT>
7

> <JCHEM_ATOM_COUNT>
37

> <JCHEM_AVERAGE_POLARIZABILITY>
29.78331159593219

> <JCHEM_BIOAVAILABILITY>
1

> <JCHEM_DONOR_COUNT>
1

> <JCHEM_FORMAL_CHARGE>
0

> <JCHEM_GHOSE_FILTER>
1

> <JCHEM_IUPAC>
8-ethyl-5-oxo-2-(pyrrolidin-1-yl)-5H,8H-pyrido[2,3-d]pyrimidine-6-carboxylic acid

> <ALOGPS_LOGP>
0.42

> <JCHEM_LOGP>
1.5934879106666664

> <ALOGPS_LOGS>
-2.38

> <JCHEM_MDDR_LIKE_RULE>
0

> <JCHEM_NUMBER_OF_RINGS>
3

> <JCHEM_PHYSIOLOGICAL_CHARGE>
-1

> <JCHEM_PKA_STRONGEST_ACIDIC>
5.612598220200083

> <JCHEM_PKA_STRONGEST_BASIC>
3.029259218784226

> <JCHEM_POLAR_SURFACE_AREA>
86.63000000000001

> <JCHEM_REFRACTIVITY>
78.96979999999999

> <JCHEM_ROTATABLE_BOND_COUNT>
3

> <JCHEM_RULE_OF_FIVE>
1

> <ALOGPS_SOLUBILITY>
1.21e+00 g/l

> <JCHEM_TRADITIONAL_IUPAC>
enterol

> <JCHEM_VEBER_RULE>
0

$$$$
6921791
  -OEChem-10061700313D

 39 41  0     0  0  0  0  0  0999 V2000
    2.8269   -2.3493   -0.1854 O   0  0  0  0  0  0  0  0  0  0  0  0
    5.2336   -1.3145    0.0080 O   0  5  0  0  0  0  0  0  0  0  0  0
    5.3858    0.9510    0.2873 O   0  0  0  0  0  0  0  0  0  0  0  0
   -5.8271    0.2267    0.1691 N   0  3  0  0  0  0  0  0  0  0  0  0
   -3.0699   -0.2966   -0.1016 N   0  0  0  0  0  0  0  0  0  0  0  0
   -0.9219    0.5552    0.0616 N   0  0  0  0  0  0  0  0  0  0  0  0
    1.3370    1.4122    0.2291 N   0  0  0  0  0  0  0  0  0  0  0  0
   -1.3203   -1.8043   -0.2358 N   0  0  0  0  0  0  0  0  0  0  0  0
   -5.2929   -1.1160    0.5412 C   0  0  0  0  0  0  0  0  0  0  0  0
   -4.8421    1.3246    0.4016 C   0  0  0  0  0  0  0  0  0  0  0  0
   -4.0291   -1.3960   -0.2616 C   0  0  0  0  0  0  0  0  0  0  0  0
   -3.5893    1.0421   -0.4134 C   0  0  0  0  0  0  0  0  0  0  0  0
   -1.7121   -0.5270   -0.0919 C   0  0  0  0  0  0  0  0  0  0  0  0
    0.4179    0.3418    0.0733 C   0  0  0  0  0  0  0  0  0  0  0  0
    0.9209   -0.9558   -0.0700 C   0  0  0  0  0  0  0  0  0  0  0  0
    0.0123   -1.9902   -0.2210 C   0  0  0  0  0  0  0  0  0  0  0  0
    0.7625    2.7431    0.3745 C   0  0  0  0  0  0  0  0  0  0  0  0
    2.6947    1.1623    0.2372 C   0  0  0  0  0  0  0  0  0  0  0  0
    2.3790   -1.2172   -0.0606 C   0  0  0  0  0  0  0  0  0  0  0  0
    3.2655   -0.0394    0.1075 C   0  0  0  0  0  0  0  0  0  0  0  0
    0.5963    3.3916   -0.9863 C   0  0  0  0  0  0  0  0  0  0  0  0
    4.7722   -0.1443    0.1372 C   0  0  0  0  0  0  0  0  0  0  0  0
   -6.1168    0.2235   -0.8190 H   0  0  0  0  0  0  0  0  0  0  0  0
   -6.6818    0.4154    0.7106 H   0  0  0  0  0  0  0  0  0  0  0  0
   -6.0778   -1.8466    0.3253 H   0  0  0  0  0  0  0  0  0  0  0  0
   -5.0994   -1.0982    1.6191 H   0  0  0  0  0  0  0  0  0  0  0  0
   -4.6386    1.3551    1.4772 H   0  0  0  0  0  0  0  0  0  0  0  0
   -5.3226    2.2580    0.0943 H   0  0  0  0  0  0  0  0  0  0  0  0
   -3.6277   -2.3515    0.0954 H   0  0  0  0  0  0  0  0  0  0  0  0
   -4.2666   -1.5185   -1.3255 H   0  0  0  0  0  0  0  0  0  0  0  0
   -3.8073    1.1013   -1.4872 H   0  0  0  0  0  0  0  0  0  0  0  0
   -2.8720    1.8397   -0.1905 H   0  0  0  0  0  0  0  0  0  0  0  0
    0.3265   -3.0220   -0.3372 H   0  0  0  0  0  0  0  0  0  0  0  0
   -0.1912    2.7329    0.9163 H   0  0  0  0  0  0  0  0  0  0  0  0
    1.4292    3.3694    0.9815 H   0  0  0  0  0  0  0  0  0  0  0  0
    3.2685    2.0741    0.3615 H   0  0  0  0  0  0  0  0  0  0  0  0
    1.5545    3.4647   -1.5117 H   0  0  0  0  0  0  0  0  0  0  0  0
   -0.0898    2.8212   -1.6210 H   0  0  0  0  0  0  0  0  0  0  0  0
    0.1927    4.4032   -0.8771 H   0  0  0  0  0  0  0  0  0  0  0  0
  1 19  2  0  0  0  0
  2 22  1  0  0  0  0
  3 22  2  0  0  0  0
  4  9  1  0  0  0  0
  4 10  1  0  0  0  0
  4 23  1  0  0  0  0
  4 24  1  0  0  0  0
  5 11  1  0  0  0  0
  5 12  1  0  0  0  0
  5 13  1  0  0  0  0
  6 13  1  0  0  0  0
  6 14  2  0  0  0  0
  7 14  1  0  0  0  0
  7 17  1  0  0  0  0
  7 18  1  0  0  0  0
  8 13  2  0  0  0  0
  8 16  1  0  0  0  0
  9 11  1  0  0  0  0
  9 25  1  0  0  0  0
  9 26  1  0  0  0  0
 10 12  1  0  0  0  0
 10 27  1  0  0  0  0
 10 28  1  0  0  0  0
 11 29  1  0  0  0  0
 11 30  1  0  0  0  0
 12 31  1  0  0  0  0
 12 32  1  0  0  0  0
 14 15  1  0  0  0  0
 15 16  2  0  0  0  0
 15 19  1  0  0  0  0
 16 33  1  0  0  0  0
 17 21  1  0  0  0  0
 17 34  1  0  0  0  0
 17 35  1  0  0  0  0
 18 20  2  0  0  0  0
 18 36  1  0  0  0  0
 19 20  1  0  0  0  0
 20 22  1  0  0  0  0
 21 37  1  0  0  0  0
 21 38  1  0  0  0  0
 21 39  1  0  0  0  0
M  CHG  2   2  -1   4   1
M  END
> <DATABASE_ID>
DB13823

> <DATABASE_NAME>
drugbank

> <ORIGINAL_SOURCE>
PUBCHEM

> <ORIGINAL_SOURCE_URL>
https://pubchem.ncbi.nlm.nih.gov/rest/pug/compound/inchikey/JOHZPMXAZQZXHR-UHFFFAOYSA-N/SDF?record_type=3d

> <SMILES>
CCN1C=C(C(O)=O)C(=O)C2=CN=C(N=C12)N1CCNCC1

> <INCHI_IDENTIFIER>
InChI=1S/C14H17N5O3/c1-2-18-8-10(13(21)22)11(20)9-7-16-14(17-12(9)18)19-5-3-15-4-6-19/h7-8,15H,2-6H2,1H3,(H,21,22)

> <INCHI_KEY>
JOHZPMXAZQZXHR-UHFFFAOYSA-N

> <FORMULA>
C14H17N5O3

> <MOLECULAR_WEIGHT>
303.3165

> <EXACT_MASS>
303.133139435

> <JCHEM_ACCEPTOR_COUNT>
8

> <JCHEM_AVERAGE_POLARIZABILITY>
30.93831180120636

> <JCHEM_BIOAVAILABILITY>
1

> <JCHEM_DONOR_COUNT>
2

> <JCHEM_FORMAL_CHARGE>
0

> <JCHEM_GHOSE_FILTER>
0

> <JCHEM_IUPAC>
8-ethyl-5-oxo-2-(piperazin-1-yl)-5H,8H-pyrido[2,3-d]pyrimidine-6-carboxylic acid

> <ALOGPS_LOGP>
-1.52

> <JCHEM_LOGP>
-1.7723289128971305

> <ALOGPS_LOGS>
-2.61

> <JCHEM_MDDR_LIKE_RULE>
0

> <JCHEM_NUMBER_OF_RINGS>
3

> <JCHEM_PHYSIOLOGICAL_CHARGE>
0

> <JCHEM_PKA_STRONGEST_ACIDIC>
5.306025724995468

> <JCHEM_PKA_STRONGEST_BASIC>
8.569980148451265

> <JCHEM_POLAR_SURFACE_AREA>
98.66000000000001

> <JCHEM_REFRACTIVITY>
82.18419999999998

> <JCHEM_ROTATABLE_BOND_COUNT>
3

> <JCHEM_RULE_OF_FIVE>
1

> <ALOGPS_SOLUBILITY>
7.46e-01 g/l

> <JCHEM_TRADITIONAL_IUPAC>
pipemidic acid

> <JCHEM_VEBER_RULE>
0

$$$$
