  0  0  0  0
    2.6326    1.8041    0.0000 C   0  0  0  0  0  0  0  0  0  0  0  0
    2.2201    1.0897    0.0000 N   0  0  0  0  0  0  0  0  0  0  0  0
    2.6326    0.3752    0.0000 C   0  0  2  0  0  0  0  0  0  0  0  0
    2.2201   -0.3392    0.0000 C   0  0  0  0  0  0  0  0  0  0  0  0
    2.6326   -1.0537    0.0000 N   0  0  0  0  0  0  0  0  0  0  0  0
    1.0174    2.5186    0.0000 C   0  0  0  0  0  0  0  0  0  0  0  0
   -0.4291    3.9456    0.0000 N   0  0  0  0  0  0  0  0  0  0  0  0
   -2.8488    4.2330    0.0000 C   0  0  2  0  0  0  0  0  0  0  0  0
   -3.3507    3.2701    0.0000 O   0  0  0  0  0  0  0  0  0  0  0  0
   -2.9382    2.5556    0.0000 C   0  0  0  0  0  0  0  0  0  0  0  0
   -3.3507    1.8412    0.0000 C   0  0  1  0  0  0  0  0  0  0  0  0
   -2.9382    1.1267    0.0000 N   0  0  0  0  0  0  0  0  0  0  0  0
   -3.3507    0.4122    0.0000 C   0  0  0  0  0  0  0  0  0  0  0  0
   -2.9382   -0.3022    0.0000 C   0  0  1  0  0  0  0  0  0  0  0  0
   -3.3507   -1.0166    0.0000 N   0  0  0  0  0  0  0  0  0  0  0  0
   -2.9382   -1.7311    0.0000 C   0  0  0  0  0  0  0  0  0  0  0  0
   -3.3507   -2.4456    0.0000 C   0  0  1  0  0  0  0  0  0  0  0  0
   -1.6119    4.6016    0.0000 C   0  0  0  0  0  0  0  0  0  0  0  0
    0.7139    4.5022    0.0000 C   0  0  0  0  0  0  0  0  0  0  0  0
    2.7118    4.7507    0.0000 O   0  0  0  0  0  0  0  0  0  0  0  0
   -1.6119    5.4962    0.0000 O   0  0  0  0  0  0  0  0  0  0  0  0
    0.7163    5.3849    0.0000 C   0  0  0  0  0  0  0  0  0  0  0  0
    1.2812    5.8161    0.0000 C   0  0  0  0  0  0  0  0  0  0  0  0
   -0.1442    5.7170    0.0000 C   0  0  0  0  0  0  0  0  0  0  0  0
    3.4577    1.8041    0.0000 O   0  0  0  0  0  0  0  0  0  0  0  0
    4.0838    0.3752    0.0000 C   0  0  0  0  0  0  0  0  0  0  0  0
    1.3951   -0.3391    0.0000 O   0  0  0  0  0  0  0  0  0  0  0  0
   -2.1132    2.5556    0.0000 O   0  0  0  0  0  0  0  0  0  0  0  0
   -4.1757    1.8412    0.0000 C   0  0  0  0  0  0  0  0  0  0  0  0
   -4.5882    2.5556    0.0000 C   0  0  0  0  0  0  0  0  0  0  0  0
   -4.5882    1.1267    0.0000 C   0  0  0  0  0  0  0  0  0  0  0  0
   -2.1132    1.1267    0.0000 C   0  0  0  0  0  0  0  0  0  0  0  0
   -4.1757    0.4122    0.0000 O   0  0  0  0  0  0  0  0  0  0  0  0
   -2.0536   -0.0537    0.0000 C   0  0  0  0  0  0  0  0  0  0  0  0
   -1.3926   -0.6786    0.0000 C   0  0  0  0  0  0  0  0  0  0  0  0
   -0.4483   -0.6787    0.0000 C   0  0  0  0  0  0  0  0  0  0  0  0
   -1.3975   -1.4826    0.0000 C   0  0  0  0  0  0  0  0  0  0  0  0
    0.6049    1.8041    0.0000 C   0  0  0  0  0  0  0  0  0  0  0  0
    1.0174    1.0897    0.0000 C   0  0  0  0  0  0  0  0  0  0  0  0
   -0.2200    1.8041    0.0000 C   0  0  0  0  0  0  0  0  0  0  0  0
    0.6049    0.3752    0.0000 C   0  0  0  0  0  0  0  0  0  0  0  0
   -0.6325    1.0897    0.0000 C   0  0  0  0  0  0  0  0  0  0  0  0
   -0.2200    0.3752    0.0000 C   0  0  0  0  0  0  0  0  0  0  0  0
   -2.1132   -1.7311    0.0000 O   0  0  0  0  0  0  0  0  0  0  0  0
   -2.9382   -3.1600    0.0000 N   0  0  0  0  0  0  0  0  0  0  0  0
    4.4963    1.0897    0.0000 C   0  0  0  0  0  0  0  0  0  0  0  0
    4.0839    1.8041    0.0000 C   0  0  0  0  0  0  0  0  0  0  0  0
    5.3214    1.0897    0.0000 C   0  0  0  0  0  0  0  0  0  0  0  0
    4.4964    2.5186    0.0000 C   0  0  0  0  0  0  0  0  0  0  0  0
    5.7339    1.8041    0.0000 C   0  0  0  0  0  0  0  0  0  0  0  0
    5.3214    2.5186    0.0000 C   0  0  0  0  0  0  0  0  0  0  0  0
    3.4172   -0.7987    0.0000 C   0  0  0  0  0  0  0  0  0  0  0  0
    2.6326   -1.8787    0.0000 C   0  0  1  0  0  0  0  0  0  0  0  0
    3.9022   -1.4662    0.0000 C   0  0  0  0  0  0  0  0  0  0  0  0
    3.4174   -2.1337    0.0000 C   0  0  0  0  0  0  0  0  0  0  0  0
    1.9652   -2.3636    0.0000 C   0  0  0  0  0  0  0  0  0  0  0  0
    1.2115   -2.0280    0.0000 O   0  0  0  0  0  0  0  0  0  0  0  0
    1.9520   -3.2139    0.0000 N   0  0  0  0  0  0  0  0  0  0  0  0
   -4.1757   -2.4456    0.0000 C   0  0  0  0  0  0  0  0  0  0  0  0
   -4.5882   -1.7311    0.0000 C   0  0  0  0  0  0  0  0  0  0  0  0
   -4.5882   -3.1600    0.0000 C   0  0  0  0  0  0  0  0  0  0  0  0
   -1.2640   -3.1712    0.0000 C   0  0  0  0  0  0  0  0  0  0  0  0
    0.3760   -3.7576    0.0000 C   0  0  1  0  0  0  0  0  0  0  0  0
   -3.5700   -4.0359    0.0000 C   0  0  0  0  0  0  0  0  0  0  0  0
   -0.9261   -2.1474    0.0000 O   0  0  0  0  0  0  0  0  0  0  0  0
    0.3713   -4.5826    0.0000 C   0  0  1  0  0  0  0  0  0  0  0  0
   -0.3453   -4.9911    0.0000 C   0  0  0  0  0  0  0  0  0  0  0  0
    1.0835   -4.9991    0.0000 C   0  0  0  0  0  0  0  0  0  0  0  0
   -1.0575   -4.5745    0.0000 C   0  0  0  0  0  0  0  0  0  0  0  0
   -0.3500   -5.8161    0.0000 C   0  0  0  0  0  0  0  0  0  0  0  0
   -4.0001    4.5612    0.0000 C   0  0  2  0  0  0  0  0  0  0  0  0
   -4.0120    5.4608    0.0000 C   0  0  0  0  0  0  0  0  0  0  0  0
   -4.8113    4.2059    0.0000 C   0  0  0  0  0  0  0  0  0  0  0  0
   -5.7339    4.6209    0.0000 C   0  0  0  0  0  0  0  0  0  0  0  0
    1.5985    1.9278    0.0000 C   0  0  0  0  0  0  0  0  0  0  0  0
  2  1  1  0  0  0  0
  3  2  1  0  0  0  0
  4  3  1  0  0  0  0
  5  4  1  0  0  0  0
  6  5  1  0  0  0  0
  7  6  1  0  0  0  0
  8  7  1  0  0  0  0
  3  9  1  6  0  0  0
 11 12  1  1  0  0  0
 13 12  1  0  0  0  0
 14 13  1  0  0  0  0
 15 14  1  0  0  0  0
 16 15  1  0  0  0  0
 17 16  1  0  0  0  0
 18 17  1  0  0  0  0
 19 18  1  0  0  0  0
 20 19  1  0  0  0  0
 11 21  1  0  0  0  0
 10 21  1  0  0  0  0
 10 22  1  0  0  0  0
  1 22  1  0  0  0  0
  1 23  2  0  0  0  0
 21 24  2  0  0  0  0
 22 25  1  0  0  0  0
 25 26  1  0  0  0  0
 25 27  1  0  0  0  0
  4 28  2  0  0  0  0
  6 29  1  1  0  0  0
  7 30  2  0  0  0  0
 13 31  2  0  0  0  0
 14 32  1  1  0  0  0
 32 33  1  0  0  0  0
 32 34  1  0  0  0  0
 15 35  1  0  0  0  0
 16 36  2  0  0  0  0
 17 37  1  6  0  0  0
 37 38  1  0  0  0  0
 38 39  1  0  0  0  0
 38 40  1  0  0  0  0
  9 41  1  0  0  0  0
 42 41  1  0  0  0  0
 43 41  2  0  0  0  0
 44 42  2  0  0  0  0
 45 43  1  0  0  0  0
 46 44  1  0  0  0  0
 46 45  2  0  0  0  0
 19 47  2  0  0  0  0
 20 48  1  0  0  0  0
 50 49  1  0  0  0  0
 51 49  2  0  0  0  0
 52 50  2  0  0  0  0
 53 51  1  0  0  0  0
 54 52  1  0  0  0  0
 54 53  2  0  0  0  0
 29 49  1  0  0  0  0
 55  8  1  0  0  0  0
 56  8  1  0  0  0  0
 57 55  1  0  0  0  0
 58 56  1  0  0  0  0
 58 57  1  0  0  0  0
 56 59  1  1  0  0  0
 59 60  2  0  0  0  0
 59 61  1  0  0  0  0
 20 62  1  1  0  0  0
 62 63  1  0  0  0  0
 62 64  1  0  0  0  0
 48 65  1  0  0  0  0
 65 66  1  0  0  0  0
 66 61  1  6  0  0  0
 48 67  1  0  0  0  0
 65 68  2  0  0  0  0
 66 69  1  0  0  0  0
 69 70  1  0  0  0  0
 69 71  1  6  0  0  0
 70 72  1  0  0  0  0
 70 73  1  0  0  0  0
 11 74  1  0  0  0  0
 74 75  1  1  0  0  0
 74 76  1  0  0  0  0
 76 77  1  0  0  0  0
  5 78  1  0  0  0  0
M  END
> <DATABASE_ID>
DB14058

> <DATABASE_NAME>
drugbank

> <SMILES>
CC[C@@H](C)[C@@H]1OC(=O)[C@H](C(C)C)N(C)C(=O)[C@H](CC(C)C)NC(=O)[C@H](C(C)C)N(C)C(=O)[C@H](NC(=O)[C@@H]2CCCN2C(=O)[C@H](CC2=CC=CC=C2)N(C)C(=O)[C@H](CC2=CC=CC=C2)NC(=O)C(NC1=O)C(C)C)[C@H](C)C(C)C

> <INCHI_IDENTIFIER>
InChI=1S/C60H92N8O10/c1-17-39(12)51-55(72)63-47(36(6)7)53(70)61-44(32-41-25-20-18-21-26-41)56(73)65(14)46(33-42-27-22-19-23-28-42)58(75)68-30-24-29-45(68)52(69)64-48(40(13)35(4)5)59(76)66(15)49(37(8)9)54(71)62-43(31-34(2)3)57(74)67(16)50(38(10)11)60(77)78-51/h18-23,25-28,34-40,43-51H,17,24,29-33H2,1-16H3,(H,61,70)(H,62,71)(H,63,72)(H,64,69)/t39-,40-,43+,44+,45+,46+,47?,48-,49+,50+,51+/m1/s1

> <INCHI_KEY>
YHSKJPXGXIYLHB-OTNPUQRPSA-N

> <FORMULA>
C60H92N8O10

> <MOLECULAR_WEIGHT>
1085.442

> <EXACT_MASS>
1084.693641194

> <JCHEM_ACCEPTOR_COUNT>
9

> <JCHEM_ATOM_COUNT>
170

> <JCHEM_AVERAGE_POLARIZABILITY>
117.99835287237158

> <JCHEM_BIOAVAILABILITY>
0

> <JCHEM_DONOR_COUNT>
4

> <JCHEM_FORMAL_CHARGE>
0

> <JCHEM_GHOSE_FILTER>
0

> <JCHEM_IUPAC>
(3R,6S,9S,12S,15S,21S,24S,29aS)-21,24-dibenzyl-15-[(2R)-butan-2-yl]-5,11,23-trimethyl-3-[(2R)-3-methylbutan-2-yl]-9-(2-methylpropyl)-6,12,18-tris(propan-2-yl)-octacosahydropyrrolo[1,2-m]1-oxa-4,7,10,13,16,19,22,25-octaazacycloheptacosane-1,4,7,10,13,16,19,22,25-nonone

> <ALOGPS_LOGP>
5.14

> <JCHEM_LOGP>
7.024578827333336

> <ALOGPS_LOGS>
-5.44

> <JCHEM_MDDR_LIKE_RULE>
1

> <JCHEM_NUMBER_OF_RINGS>
4

> <JCHEM_PHYSIOLOGICAL_CHARGE>
0

> <JCHEM_PKA>
12.17925414945101

> <JCHEM_PKA_STRONGEST_ACIDIC>
11.763028859800674

> <JCHEM_PKA_STRONGEST_BASIC>
-2.3390497282172937

> <JCHEM_POLAR_SURFACE_AREA>
223.93999999999997

> <JCHEM_REFRACTIVITY>
297.7461999999999

> <JCHEM_ROTATABLE_BOND_COUNT>
13

> <JCHEM_RULE_OF_FIVE>
0

> <ALOGPS_SOLUBILITY>
3.95e-03 g/l

> <JCHEM_TRADITIONAL_IUPAC>
aureobasidin A

> <JCHEM_VEBER_RULE>
0

> <DRUGBANK_ID>
DB14058

> <DRUG_GROUPS>
experimental

> <GENERIC_NAME>
Basifungin

> <SYNONYMS>
Aureobasidin A; Basifungin

$$$$
91885568
  -OEChem-05201911033D

 64 68  0     0  0  0  0  0  0999 V2000
  -11.0731    0.3613    0.4516 F   0  0  0  0  0  0  0  0  0  0  0  0
    5.4955   -1.7001   -2.0838 O   0  0  0  0  0  0  0  0  0  0  0  0
    3.2780   -0.0170   -2.4853 O   0  0  0  0  0  0  0  0  0  0  0  0
   -2.8480   -0.5270   -0.1006 N   0  0  0  0  0  0  0  0  0  0  0  0
   -5.7032   -0.2185    0.0907 N   0  0  0  0  0  0  0  0  0  0  0  0
    6.6734   -1.2094    0.5966 N   0  0  0  0  0  0  0  0  0  0  0  0
   -7.8137   -1.2014    0.1742 N   0  0  0  0  0  0  0  0  0  0  0  0
   -7.5485    1.1917    0.2729 N   0  0  0  0  0  0  0  0  0  0  0  0
    2.6842   -1.1279   -0.4725 N   0  0  0  0  0  0  0  0  0  0  0  0
   -3.6726   -1.5382    0.5608 C   0  0  0  0  0  0  0  0  0  0  0  0
   -3.5186    0.6458   -0.6615 C   0  0  0  0  0  0  0  0  0  0  0  0
   -4.8176    0.9458    0.0915 C   0  0  0  0  0  0  0  0  0  0  0  0
   -5.0935   -1.5444   -0.0096 C   0  0  0  0  0  0  0  0  0  0  0  0
   -1.4668   -0.6762   -0.1931 C   0  0  0  0  0  0  0  0  0  0  0  0
   -7.0844   -0.0693    0.1836 C   0  0  0  0  0  0  0  0  0  0  0  0
   -0.7727   -1.3734    0.7957 C   0  0  0  0  0  0  0  0  0  0  0  0
   -0.7773   -0.1291   -1.2752 C   0  0  0  0  0  0  0  0  0  0  0  0
    0.6108   -1.5237    0.7024 C   0  0  0  0  0  0  0  0  0  0  0  0
    0.6063   -0.2794   -1.3686 C   0  0  0  0  0  0  0  0  0  0  0  0
    1.3004   -0.9767   -0.3796 C   0  0  0  0  0  0  0  0  0  0  0  0
    5.6580   -0.5259   -0.0198 C   0  0  0  0  0  0  0  0  0  0  0  0
    5.4415    0.6362    0.6873 C   0  0  0  0  0  0  0  0  0  0  0  0
    7.1078   -0.5017    1.6868 C   0  0  0  0  0  0  0  0  0  0  0  0
    6.3586    0.6514    1.7670 C   0  0  0  0  0  0  0  0  0  0  0  0
    4.9570   -1.0097   -1.2307 C   0  0  0  0  0  0  0  0  0  0  0  0
    4.4466    1.6102    0.3367 C   0  0  0  0  0  0  0  0  0  0  0  0
    3.5234   -0.6492   -1.4717 C   0  0  0  0  0  0  0  0  0  0  0  0
    7.2048   -2.4848    0.1636 C   0  0  0  0  0  0  0  0  0  0  0  0
   -9.1475   -1.0200    0.2652 C   0  0  0  0  0  0  0  0  0  0  0  0
   -8.8904    1.2997    0.3608 C   0  0  0  0  0  0  0  0  0  0  0  0
    8.1987   -0.9846    2.5585 C   0  0  0  0  0  0  0  0  0  0  0  0
   -9.7481    0.2187    0.3619 C   0  0  0  0  0  0  0  0  0  0  0  0
    3.4306    1.9242    1.2393 C   0  0  0  0  0  0  0  0  0  0  0  0
    4.4957    2.2421   -0.9057 C   0  0  0  0  0  0  0  0  0  0  0  0
    2.4634    2.8702    0.8995 C   0  0  0  0  0  0  0  0  0  0  0  0
    3.5286    3.1881   -1.2457 C   0  0  0  0  0  0  0  0  0  0  0  0
    2.5125    3.5021   -0.3431 C   0  0  0  0  0  0  0  0  0  0  0  0
   -3.2521   -2.5416    0.4197 H   0  0  0  0  0  0  0  0  0  0  0  0
   -3.7351    0.4670   -1.7221 H   0  0  0  0  0  0  0  0  0  0  0  0
   -3.7041   -1.3324    1.6380 H   0  0  0  0  0  0  0  0  0  0  0  0
   -2.8795    1.5347   -0.5913 H   0  0  0  0  0  0  0  0  0  0  0  0
   -4.5989    1.2279    1.1288 H   0  0  0  0  0  0  0  0  0  0  0  0
   -5.2844    1.8093   -0.3970 H   0  0  0  0  0  0  0  0  0  0  0  0
   -5.0788   -1.8524   -1.0623 H   0  0  0  0  0  0  0  0  0  0  0  0
   -5.6646   -2.2955    0.5491 H   0  0  0  0  0  0  0  0  0  0  0  0
   -1.2774   -1.7983    1.6590 H   0  0  0  0  0  0  0  0  0  0  0  0
   -1.2905    0.4066   -2.0692 H   0  0  0  0  0  0  0  0  0  0  0  0
    1.1399   -2.0662    1.4819 H   0  0  0  0  0  0  0  0  0  0  0  0
    1.0769    0.1682   -2.2337 H   0  0  0  0  0  0  0  0  0  0  0  0
    6.4645    1.4182    2.5229 H   0  0  0  0  0  0  0  0  0  0  0  0
    3.1168   -1.6516    0.2855 H   0  0  0  0  0  0  0  0  0  0  0  0
    7.8239   -2.3135   -0.7206 H   0  0  0  0  0  0  0  0  0  0  0  0
    7.8038   -2.9443    0.9514 H   0  0  0  0  0  0  0  0  0  0  0  0
    6.3720   -3.1547   -0.0665 H   0  0  0  0  0  0  0  0  0  0  0  0
   -9.7405   -1.9281    0.2584 H   0  0  0  0  0  0  0  0  0  0  0  0
   -9.2705    2.3131    0.4331 H   0  0  0  0  0  0  0  0  0  0  0  0
    7.9073   -1.9024    3.0794 H   0  0  0  0  0  0  0  0  0  0  0  0
    9.1101   -1.1766    1.9832 H   0  0  0  0  0  0  0  0  0  0  0  0
    8.4453   -0.2385    3.3216 H   0  0  0  0  0  0  0  0  0  0  0  0
    3.3732    1.4387    2.2107 H   0  0  0  0  0  0  0  0  0  0  0  0
    5.2864    2.0232   -1.6197 H   0  0  0  0  0  0  0  0  0  0  0  0
    1.6709    3.1130    1.6012 H   0  0  0  0  0  0  0  0  0  0  0  0
    3.5678    3.6816   -2.2123 H   0  0  0  0  0  0  0  0  0  0  0  0
    1.7591    4.2381   -0.6082 H   0  0  0  0  0  0  0  0  0  0  0  0
  1 32  1  0  0  0  0
  2 25  2  0  0  0  0
  3 27  2  0  0  0  0
  4 10  1  0  0  0  0
  4 11  1  0  0  0  0
  4 14  1  0  0  0  0
  5 12  1  0  0  0  0
  5 13  1  0  0  0  0
  5 15  1  0  0  0  0
  6 21  1  0  0  0  0
  6 23  1  0  0  0  0
  6 28  1  0  0  0  0
  7 15  2  0  0  0  0
  7 29  1  0  0  0  0
  8 15  1  0  0  0  0
  8 30  2  0  0  0  0
  9 20  1  0  0  0  0
  9 27  1  0  0  0  0
  9 51  1  0  0  0  0
 10 13  1  0  0  0  0
 10 38  1  0  0  0  0
 10 40  1  0  0  0  0
 11 12  1  0  0  0  0
 11 39  1  0  0  0  0
 11 41  1  0  0  0  0
 12 42  1  0  0  0  0
 12 43  1  0  0  0  0
 13 44  1  0  0  0  0
 13 45  1  0  0  0  0
 14 16  2  0  0  0  0
 14 17  1  0  0  0  0
 16 18  1  0  0  0  0
 16 46  1  0  0  0  0
 17 19  2  0  0  0  0
 17 47  1  0  0  0  0
 18 20  2  0  0  0  0
 18 48  1  0  0  0  0
 19 20  1  0  0  0  0
 19 49  1  0  0  0  0
 21 22  2  0  0  0  0
 21 25  1  0  0  0  0
 22 24  1  0  0  0  0
 22 26  1  0  0  0  0
 23 24  2  0  0  0  0
 23 31  1  0  0  0  0
 24 50  1  0  0  0  0
 25 27  1  0  0  0  0
 26 33  2  0  0  0  0
 26 34  1  0  0  0  0
 28 52  1  0  0  0  0
 28 53  1  0  0  0  0
 28 54  1  0  0  0  0
 29 32  2  0  0  0  0
 29 55  1  0  0  0  0
 30 32  1  0  0  0  0
 30 56  1  0  0  0  0
 31 57  1  0  0  0  0
 31 58  1  0  0  0  0
 31 59  1  0  0  0  0
 33 35  1  0  0  0  0
 33 60  1  0  0  0  0
 34 36  2  0  0  0  0
 34 61  1  0  0  0  0
 35 37  2  0  0  0  0
 35 62  1  0  0  0  0
 36 37  1  0  0  0  0
 36 63  1  0  0  0  0
 37 64  1  0  0  0  0
M  END
> <DATABASE_ID>
DB15245

> <DATABASE_NAME>
drugbank

> <ORIGINAL_SOURCE>
PUBCHEM

> <ORIGINAL_SOURCE_URL>
https://pubchem.ncbi.nlm.nih.gov/rest/pug/compound/inchikey/SUFPWYYDCOKDLL-UHFFFAOYSA-N/SDF?record_type=3d

> <SMILES>
CN1C(C)=CC(=C1C(=O)C(=O)NC1=CC=C(C=C1)N1CCN(CC1)C1=NC=C(F)C=N1)C1=CC=CC=C1

> <INCHI_IDENTIFIER>
InChI=1S/C28H27FN6O2/c1-19-16-24(20-6-4-3-5-7-20)25(33(19)2)26(36)27(37)32-22-8-10-23(11-9-22)34-12-14-35(15-13-34)28-30-17-21(29)18-31-28/h3-11,16-18H,12-15H2,1-2H3,(H,32,37)

> <INCHI_KEY>
SUFPWYYDCOKDLL-UHFFFAOYSA-N

> <FORMULA>
C28H27FN6O2

> <MOLECULAR_WEIGHT>
498.562

> <EXACT_MASS>
498.217952296

> <JCHEM_ACCEPTOR_COUNT>
6

> <JCHEM_ATOM_COUNT>
64

> <JCHEM_AVERAGE_POLARIZABILITY>
52.98638503315574

> <JCHEM_BIOAVAILABILITY>
1

> <JCHEM_DONOR_COUNT>
1

> <JCHEM_FORMAL_CHARGE>
0

> <JCHEM_GHOSE_FILTER>
0

> <JCHEM_IUPAC>
2-(1,5-dimethyl-3-phenyl-1H-pyrrol-2-yl)-N-{4-[4-(5-fluoropyrimidin-2-yl)piperazin-1-yl]phenyl}-2-oxoacetamide

> <ALOGPS_LOGP>
4.17

> <JCHEM_LOGP>
4.739398609333334

> <ALOGPS_LOGS>
-4.55

> <JCHEM_MDDR_LIKE_RULE>
1

> <JCHEM_NUMBER_OF_RINGS>
5

> <JCHEM_PHYSIOLOGICAL_CHARGE>
0

> <JCHEM_PKA_STRONGEST_ACIDIC>
12.287209412142646

> <JCHEM_PKA_STRONGEST_BASIC>
2.6578712439674224

> <JCHEM_POLAR_SURFACE_AREA>
83.36

> <JCHEM_REFRACTIVITY>
144.15579999999994

> <JCHEM_ROTATABLE_BOND_COUNT>
6

> <JCHEM_RULE_OF_FIVE>
1

> <ALOGPS_SOLUBILITY>
1.42e-02 g/l

> <JCHEM_TRADITIONAL_IUPAC>
(2R)-14-fluoro-2-methyl-6,9,10,19-tetraazapentacyclo[14.2.1.0^{2,6}.0^{8,18}.0^{12,17}]nonadeca-1(18),8,12(17),13,15-pentaen-11-one

> <JCHEM_VEBER_RULE>
0

$$$$
                                                                                                                                                                                                                                                                                                                                                                                                                                                                                                                                                                                                                                                                                                                                                                                                                                                                                                                                                                                                                                                                                                                                                                                                                                                                                                                                                                                                                                                                                                                                                                                                                                                                                                                                                                                                                                                                                                                                                                                                                                                                                                                                                                                                                                                                                                                                                                                                                                                                                                                                                                                                                                                                                                                                                                                                                                                                                                                                                                                                                                                                                                                                                                                                                                                                                                                                                                                                                                                                                                                                                                                                                                                                                                                                                                                                                                                                                                                            Rp(gzOq#"W=U'BRJ ޤfS7`u+S.6jƷB3^;ԂV;fzBЗ9U^<[ǷQA3Tkmmr)ȷSA
rjBceڙQmܥVë:6qXBmOc(^34۩!hkX=0KCАå;@@,iN?Hif~؉H\皶N)Bɦ|)#2~,Msns]:O9yb@cl&7`w$cG5oN^3;-8ZDQɀ֎ёL}1nNb]׮,8>a*uG]wxۉPcM[sSZq}:
GZ>U~d&0 UmQCoMĭ/wؚU'F|",&26v(}u{l)ݪ]j]TLv]pl5ĕAW6UGlP[bv{9*`Z6wvd}dAAB\+E5vⱊ6#!'"FEPSW+EfI"2bB5O|<]&"EVQ.uĶ9{|f@|S-&*&r3ScOm-(vL+ALFaTM,emW]j謮q⭊l<CX~Qrv VJVzϢ)*[h]ʎ9]~2ukT-NjgwgUfR]+mVy&0Sx"[mU1kY>]s4nH yCtUŻ}bѺQl1*&Qyjdcۈ&*oCԡRIQWG?DD-.Cq^1SR^)fjspC*+Da`?La[V⪧&!rNMXs{"35>V셺GBxz6܃~,E,,{1\J	rUbjԗnRȭ7N'ɶp?&֣ul"bjYu]ߺAo'Z;cT!黨d?V)cXdXt|=~\~=O|;bqF;3u@ǎJnMChoa	p+s."~R(⇩OpDwُŝѴߺ*
E6g$'=?Q\`-5KUAvȽhNo&_\,cŕ'BDy6Nq-e25~2X8 ɦ|#XdXF8?ei:d uO럒ߩ`hKGۛ:ڢS4#* ԨvpBW+A0F,3/;uryq+ϰko\`IH|Md{&_BU.,$>^JܞɞծnK@[mk$٧Ti4!cpFd{ϝZv\P7=3']'JLRWGHGv&殨;Ɵku9-{RqV9mRJjdS>2kVo1?ndn=Z"pіS	՘~J8c1[Vvh][L_:%D(! qF5ݰ̼\Ss"6,ϋlN=VRGh z@d{gt*@㚺ʧ 9D&B.1;ESqr0>L<.hu&xg:X$N\`x%NlF~/h ^N&}QEDdG6}٧$&Xm0e*S-NU^='/LE,@wb>6-^];s]ҫ
D-ϯtj	B8ZpsdsN&:xKI+=lu^!N;bq|V'hu۰+ƱPd{>~~_BFR2Aeb8[\Xf/wg괛eK;dA+< g ތ0qRMu8Hٞ>JSGHwć"xcɊ7j^A^Bguj/SEARk<+E'V,'L#6θڳ	vͷXg(/6cyT if_l+AD--ŠQc+-eh2UP})M/8@= `\uqZ\2H'udqCwY^\҄Lwpn$zXZl$Gc"1q\dME6rBtD6ZcC:Dl1uhͤ1?l1ck_4sP$,2ЬpFF2L?v6y&Yԫ~7Vv4Л{P3p7ޓtPovO<MH;It헡waǽ1{qnsR,\&Uخ*K4Фs킩C 3׈l4(V/ol 7Q# w@d{Q#7&j*r#PeD6[N!IO<*,Tu^<.1m75"[^Ľ"͠2VaN>D9T}5
~hQ}핊S!
4T=ekGt+pRۀVB`x8#=u"X=n=o~(u^F4^C輋gR^\GZݫ\]bH2fʜ1wj=Z^kֵ1~cJr0@&Do'0D=d{َ/wZfaZTKwC"x>V흏COm:%X뿧 7Q7ٟu<QM<`9J<ͩmKSL'_7 Diydѽu0ؙ.Ɗ:d	ZU;|\{o̽?S^s!^t9^)Z^RͽX81OON!\J]0k?rt5Q.ͼWut#O(G`֚~ቮ zOA&X#^GR%T_ۆi]53"	])H@lQMɳU/姦ɞl69C5㻪<ÒM5HK7VgxòVB9 gN֗^V\{D.$Xl!^%(@G/6vOyGH#\ϲ] Ua2DoU|8Ua8JQ}<đQE7抓`"]];\?yqbGdVjkԼj^Jzznm1f2J.uw9l<FYIn.x@84+u8yZŉ< gˈo8H5TݭtE6zm5`x@d{tA#P5C&Cϛ3ǉU!)>cE,푧%NT,T8{l;*Ղ0rBp?0Lnxߩt@랡1rnIĥL&}R5]TDzu\poM\`9J\KSlD\}O꼑uAxO-湠!bq`h=nqoq[ZXQ~<}ȽG^gk2%j,V2L?e
Ebo: v3L?-ѧ*0;7Ϩ2!Gw	ZDUqzM.cKBP9~Jw4/dU<j'O$aaGRVn^g>D<)x-$#~bU`xJd{pB;8*tWOgEW`Bl%AC1׎6KUE0?}! A]TfWкV=Q1`1\,pW62Rfcok@ЌàPrs|@×dYfV~g.!	xCdʂ W0A%Go"ۋق$]e;u'`3d)LBy&90x15Ft݋̽E12SMWKD~NMk0N3L嗜Kno.9W$vJwJ԰G1UH>Eͭ.G=$m2eͥy̧[Sq}Z%zi/qFd{&(Tć"[~IG.<7el䮚)cII,2\)){*DO#%3Z7NlqG 
ʠScexȮ$*=)	u;;%2 Gí7\21}_Sbb8"rG"gvm)8vٔqZڜa\}}>KSi2O?гwlIFfhI$__঒\/I
DڨgQ8I-1i8lx8&^ha-,Eڙs&vu(D:.u! K.&ƪG/Y?\OP3ekA,]yk!Wɲ7rDG,PUΕ^֝寪dZ
AiWش@sgS(|V\ =`Q Ŧ|Xmΰl rT> z%5{D6?TnTg3L?]^î(VUL%f_2zMӚɎԲySμh̹HcMjX8rIXF:y$[I3?t׵[r]:)[;D|ũN'y
Ʊ8#e2 KtZD4=~
_ ZTM=e3%xjzV (~j{_0	{{c8}ÝG"nh'~DZSoD5A<,тk4_ #MnDF4©4ϼmpA@7 `/cGvvBEi9vPhs[":J- GC,l-\{"R-o|p*
$yXTAh-h;
AJ!^	Rx%ayi;ʑl&yɸ\z};9ȝmUk{er%C|#P5k(J%BO $3_AoG҃R1OvMTI,޷cZwͲA#9Yk;Ɋ3	OխF0hy(G	(gmrZ=Я$Q zp:;lN5_T,^&:">pu!y`O$+">޶zSD$9BAS>RV,ˍ]&Ia\\ Ȧ|\ڜa9-M[;3 m?m"s)6L;T~FYV6^~T
T PamTߌNH=a&HF1Ş[jZ|-C;ȡ_^je!*crij;1n={AP]]G	nݓ@ JϫEP#}s@IP*ym6L݃M.Yw|=՛IwG}@ʌ%{du~⮨gO1X-twYPUԥlMI+cu}9FK}M~h>B@HTXYOGkUlO,&'E6Zcunt$RV\%ΊlN<n$*LzOj^+;;w[y$6A|BLn]nh*ɹ(uGwZ)#6#VC\*sUfMW|<QRǆRj/h%fB'Sie(ǜ֏ұR{	i{*vO!sAFǉNq@vt5F$>Z"%UVw'8H[X$y,ыj&uzpA#rq8mĽ"MZMjz|li2Y8F97p9:@~?V5xOܥVëJf{jiҘgU69U0 3"װWF| ry*V3۰_ҭwdrЮm>Ľ"Y@ ޾z"1fNKkERNk@?t֥
SjPx^|^i*;+/ڽ"-f8©WwGPDw9Dhr^a.rנ٦O-3^LǢs;S<Oy5݈v9\/L{_)E~uWw75pv
89ȋ"/?/E_dکvn4#Mה(XJzAXl#3^12L?ة/.0X<~רshzUL"-YG)v]2mGPBtu?j5~}4)_&e #DYsc2s7t*D6+(qBdr&\+STSaCw)x0ETcUxU@7E'h9.c)TPԵ#
S#meSR1|xMd`A9uTͫw8#=z)e"}ZtʾҾ]yL˄Ur]'rC?g\j Sv8D׾|
yiG\߫p/y^bq<ڟB߱vc;xuI*-w璾\Jq.%WOt0h!hgUے<:IlӺgZg~
S"5T8餪ߞ5qVt7H|(ѻB^l/y_s{O^(VkQ˭!,Oy^^%ShRǄmyJ-z)6}79>{EL?-H8M$ٶZg2FoYлa)pZloYo!
fEz-"QejA	6H*⦤ʊJIjW%Z:JŮ/4o ߈ݖQ5OF;Dh1bmA:ĥdLl"AX<VE`ܺc12o^9ti
YbhMLtK`\ql Va6j-j.2Kx%N~)2,)2)".y6Nw!6n;Doo	V~˟j}-Tf)Vzfιf%:(GD7u7uGIH,ܬQKGEaC`vcI30o"}xUdbSk"ǉE>eKA| t0*4Ys+d)MX	SQKG<&ٍO'ɅЯߔ!Uޡ~,K̞&49ŋA=OGQk?ZBo-`qm(~O`qxFdJT6m a݌`{8+zshq%
iPJ2d]]}hj4*{dG{W|ر~*%0kbǞʊ~͏+pm$z.Wiu7edDގV;s\4P*8&w$=JeF>?Zn]ă"b8&c,"KLʛW	IU?t;ć"LjəE|{]&wrQC3im3ZI`y8-g=C"ٞ8x=xUP=C/J6o9\
pZKh'^SQwQU)ypQE~ 
]I}}6[9Fʛ&RG/["Մ.H(6'oҙforl7mLvn"Nr9797^Jz +"[,ftKU/z׈DW" ЪdBp&hIO=-A.>=XNOxm &:"ۋgv|h5	1l~wd[L'"7I:eԸr|@_up.M;RXBrXx#9e{آu7
P@|UdM6
&i&ϧ:$VEDkAUʚ.>DvfFނ鋁)VwJ^t:yThSPےT`X>c+	WE:,lϣGlVN| rNшG!?
	Y閉8hM*$(%u,vDոg^ǉ=NHF=N,s8:&U7O9k"ktO0I+G^D??jhk Hw\`\.Xwl/.쐘M7+7S.oWc8+ݷ@~*轚a)H%h]%^)w'ÂSP:)%#ZOA{P~9kAB]abz$Zwo.W Z"M`1tPX+r+ 3xDd`
;a)pZ"3_}5B'">ٞx*tBb7s#|B&3[i"X,&DWhGOVio*CW["u˧J0hIrL̔Vn~OTxdޥ@ qLd>u&lΉ=J<!r]YbxRd{]YMlxJdqjb+"ī"ۋkuSkě"ۋ{SvE?
o`1H~S>2u^5,:niaD}y5U,h[-WLV57ɘr{zQ[ z3L?5X\#^vdl$ϻ֨{m.x(=A+"앧\16J
A/td+F3B[]'$	D0Au\$RQoRͭ9Ovyn>3,x_$Z)rFD6k9 dh&h/d#%`LUϨ)?[o.n<Olt2˼ºtdW7{-)hW>-ngE6ZjM2﫿3E!nzxSd{gw=IdPE(Um6!)yss	TO\,lύ	Z<70F| rn}>*#׼/~sE<*r/Sb,D.Xl"FQm*$Rn7ƃ$qFd{jD.~$(WH'jo8F<,2 M=#"Ӊ)UmU:3۪\n#]e)kkr mbGq"m}DSim+m" yXhւC<%ٗ?u
^3"۫jPN7EEȠUTTX=KVCR3ځ8K"pC/-b=UJ7ڣd[[Tu\L,%;_4|yM6mF)TW\O4՝*M7^!%"I`ϼ['Bͅ_LD6Z6_o?A~wm0lѸI@[\3{xBCbxR2TVس	Hoj/\`&^^͎S* X 
{S5{OtqX|LXT]NJ<g	9OՀ4n3vB\mƲ@;cSoabx҂EzpSq[YZκ!x~Ƕ)ďX]"
$X-cJq57luiuKv9}U]|dUzpMH%F0XR)ԙ#H^T[dGhxͅd\OAP|@Τ浴>8[eZIXv[-`1Hn\HTӏ}-d4QRu@a "X7_k/D xѮ^A^\Ē#~W<O@ww3$WbZ!ElִB>A q\(lI?=$MG/H]hJS>D- #8L, A4+ڢ\?!:;^v	Na7zQqc'wg32mzp噾);OgNK(Im&RGjUn9$%RiJvDw+w5g*9bHsQ}GQ-eqwD.BX\%dzIvI|VW5Uxi2iUYN8F<'2뿍y_1	׈E.0-,.l/-vv7кK'rE=%~an޶,"}˹gvl0=L`qxZd{G6Za
}7pUw3i_>]&Eg$ڦލ~`=c|qr~/̗LuW{K"l.۪󝽒aooyOnݰAq_Ɓ%6GUGU)JMcp=H</bg(,:!bgϥ؛u<T7&n푶C"Z`1B2akr9^70_ٟ-J<+l[ٟ-?boVvh-g4H\`0!l[U"{Ϳ?GHayV5˷?G~.ެ~#9mF(qRdea8XDڙgrc,Ol{9
˳fXs)݈WhP%k Wģ"}5r?ODayV.˷r?O~.^Qb+,FW^<H<%
W狲(,
!bVϥ؛|Ќ08\`M!^WqcS"q(`"o\YXn]`9J~`1B^atEa"o\Y/^ځ9Jt*V1Xl5*	Y66HFayV1˷H~.݆[.`P%bo`yX(,
!bVϥأ
Qb+,FWlo%#
˳pfX%s)rX%,F/_!Nl'
˳xfX21704
  -OEChem-10051719093D

 32 34  0     1  0  0  0  0  0999 V2000
    1.6129    0.2039    1.0380 O   0  0  0  0  0  0  0  0  0  0  0  0
    1.2876   -0.4886   -1.8957 O   0  0  0  0  0  0  0  0  0  0  0  0
    4.0666   -1.5204    0.1480 O   0  0  0  0  0  0  0  0  0  0  0  0
    2.3692    2.8702    0.7606 O   0  0  0  0  0  0  0  0  0  0  0  0
   -0.2806   -1.0797    0.3796 N   0  0  0  0  0  0  0  0  0  0  0  0
   -2.3558   -1.9098    0.3990 N   0  0  0  0  0  0  0  0  0  0  0  0
   -0.7770    1.2504   -0.1005 N   0  0  0  0  0  0  0  0  0  0  0  0
   -3.1780    1.6214   -0.3326 N   0  0  0  0  0  0  0  0  0  0  0  0
   -4.7790   -0.1421   -0.0998 N   0  0  0  0  0  0  0  0  0  0  0  0
    1.9227   -1.2106   -0.8484 C   0  0  2  0  0  0  0  0  0  0  0  0
    1.1744   -1.0427    0.4706 C   0  0  1  0  0  0  0  0  0  0  0  0
    3.2532   -0.5617   -0.5248 C   0  0  1  0  0  0  0  0  0  0  0  0
    2.8814    0.5577    0.4498 C   0  0  1  0  0  0  0  0  0  0  0  0
    2.7219    1.9137   -0.2234 C   0  0  0  0  0  0  0  0  0  0  0  0
   -1.1188   -0.0277    0.1217 C   0  0  0  0  0  0  0  0  0  0  0  0
   -1.0764   -2.1880    0.5378 C   0  0  0  0  0  0  0  0  0  0  0  0
   -2.3969   -0.5631    0.1387 C   0  0  0  0  0  0  0  0  0  0  0  0
   -3.4497    0.3146   -0.0999 C   0  0  0  0  0  0  0  0  0  0  0  0
   -1.8778    2.0025   -0.3186 C   0  0  0  0  0  0  0  0  0  0  0  0
    1.9911   -2.2637   -1.1396 H   0  0  0  0  0  0  0  0  0  0  0  0
    1.4690   -1.8257    1.1810 H   0  0  0  0  0  0  0  0  0  0  0  0
    3.7991   -0.2034   -1.4030 H   0  0  0  0  0  0  0  0  0  0  0  0
    3.5979    0.6387    1.2754 H   0  0  0  0  0  0  0  0  0  0  0  0
    1.9264    1.9029   -0.9738 H   0  0  0  0  0  0  0  0  0  0  0  0
    3.6580    2.2260   -0.6966 H   0  0  0  0  0  0  0  0  0  0  0  0
    1.8398   -0.5823   -2.6906 H   0  0  0  0  0  0  0  0  0  0  0  0
    4.8987   -1.0778    0.3877 H   0  0  0  0  0  0  0  0  0  0  0  0
   -0.6652   -3.1654    0.7503 H   0  0  0  0  0  0  0  0  0  0  0  0
    2.2767    3.7261    0.3085 H   0  0  0  0  0  0  0  0  0  0  0  0
   -1.6970    3.0550   -0.5087 H   0  0  0  0  0  0  0  0  0  0  0  0
   -4.9843   -1.1167    0.0739 H   0  0  0  0  0  0  0  0  0  0  0  0
   -5.5267    0.5151   -0.2755 H   0  0  0  0  0  0  0  0  0  0  0  0
  1 11  1  0  0  0  0
  1 13  1  0  0  0  0
  2 10  1  0  0  0  0
  2 26  1  0  0  0  0
  3 12  1  0  0  0  0
  3 27  1  0  0  0  0
  4 14  1  0  0  0  0
  4 29  1  0  0  0  0
  5 11  1  0  0  0  0
  5 15  1  0  0  0  0
  5 16  1  0  0  0  0
  6 16  2  0  0  0  0
  6 17  1  0  0  0  0
  7 15  2  0  0  0  0
  7 19  1  0  0  0  0
  8 18  1  0  0  0  0
  8 19  2  0  0  0  0
  9 18  1  0  0  0  0
  9 31  1  0  0  0  0
  9 32  1  0  0  0  0
 10 11  1  0  0  0  0
 10 12  1  0  0  0  0
 10 20  1  0  0  0  0
 11 21  1  0  0  0  0
 12 13  1  0  0  0  0
 12 22  1  0  0  0  0
 13 14  1  0  0  0  0
 13 23  1  0  0  0  0
 14 24  1  0  0  0  0
 14 25  1  0  0  0  0
 15 17  1  0  0  0  0
 16 28  1  0  0  0  0
 17 18  2  0  0  0  0
 19 30  1  0  0  0  0
M  END
> <DATABASE_ID>
DB00194

> <DATABASE_NAME>
drugbank

> <ORIGINAL_SOURCE>
PUBCHEM

> <ORIGINAL_SOURCE_URL>
https://pubchem.ncbi.nlm.nih.gov/rest/pug/compound/inchikey/OIRDTQYFTABQOQ-UHTZMRCNSA-N/SDF?record_type=3d

> <SMILES>
NC1=NC=NC2=C1N=CN2[C@@H]1O[C@H](CO)[C@@H](O)[C@@H]1O

> <INCHI_IDENTIFIER>
InChI=1S/C10H13N5O4/c11-8-5-9(13-2-12-8)15(3-14-5)10-7(18)6(17)4(1-16)19-10/h2-4,6-7,10,16-18H,1H2,(H2,11,12,13)/t4-,6-,7+,10-/m1/s1

> <INCHI_KEY>
OIRDTQYFTABQOQ-UHTZMRCNSA-N

> <FORMULA>
C10H13N5O4

> <MOLECULAR_WEIGHT>
267.2413

> <EXACT_MASS>
267.096753929

> <JCHEM_ACCEPTOR_COUNT>
8

> <JCHEM_AVERAGE_POLARIZABILITY>
24.491812595571652

> <JCHEM_BIOAVAILABILITY>
1

> <JCHEM_DONOR_COUNT>
4

> <JCHEM_FORMAL_CHARGE>
0

> <JCHEM_GHOSE_FILTER>
0

> <JCHEM_IUPAC>
(2R,3S,4S,5R)-2-(6-amino-9H-purin-9-yl)-5-(hydroxymethyl)oxolane-3,4-diol

> <ALOGPS_LOGP>
-1.21

> <JCHEM_LOGP>
-2.0909638716666668

> <ALOGPS_LOGS>
-1.28

> <JCHEM_MDDR_LIKE_RULE>
0

> <JCHEM_NUMBER_OF_RINGS>
3

> <JCHEM_PHYSIOLOGICAL_CHARGE>
0

> <JCHEM_PKA>
13.891216627250436

> <JCHEM_PKA_STRONGEST_ACIDIC>
12.454003289052789

> <JCHEM_PKA_STRONGEST_BASIC>
4.9884408144871495

> <JCHEM_POLAR_SURFACE_AREA>
139.54

> <JCHEM_REFRACTIVITY>
63.1956

> <JCHEM_ROTATABLE_BOND_COUNT>
2

> <JCHEM_RULE_OF_FIVE>
1

> <ALOGPS_SOLUBILITY>
1.40e+01 g/l

> <JCHEM_TRADITIONAL_IUPAC>
armes

> <JCHEM_VEBER_RULE>
0

$$$$
12560
  Mrv0541 02231214302D          

 51 53  0  0  1  0            999 V2000
    4.5376   -0.9760    0.0000 O   0  0  0  0  0  0  0  0  0  0  0  0
    4.5376    0.4529    0.0000 O   0  0  0  0  0  0  0  0  0  0  0  0
    5.9887   -2.4873    0.0000 O   0  0  0  0  0  0  0  0  0  0  0  0
    4.5376   -2.4050    0.0000 O   0  0  0  0  0  0  0  0  0  0  0  0
    3.3001    1.1675    0.0000 O   0  0  0  0  0  0  0  0  0  0  0  0
    7.0127    1.8819    0.0000 O   0  0  0  0  0  0  0  0  0  0  0  0
    4.1251    3.4214    0.0000 O   0  0  0  0  0  0  0  0  0  0  0  0
    2.8876   -0.9760    0.0000 O   0  0  0  0  0  0  0  0  0  0  0  0
    2.8876    3.3109    0.0000 O   0  0  0  0  0  0  0  0  0  0  0  0
    9.0471    1.3810    0.0000 O   0  0  0  0  0  0  0  0  0  0  0  0
    7.2057    0.9833    0.0000 O   0  0  0  0  0  0  0  0  0  0  0  0
    8.2502   -1.6905    0.0000 O   0  0  0  0  0  0  0  0  0  0  0  0
    7.0127    0.4529    0.0000 O   0  0  0  0  0  0  0  0  0  0  0  0
    2.0625   -2.4050    0.0000 N   0  0  0  0  0  0  0  0  0  0  0  0
    5.3626   -0.9760    0.0000 C   0  0  2  0  0  0  0  0  0  0  0  0
    5.7751   -0.2615    0.0000 C   0  0  2  0  0  0  0  0  0  0  0  0
    5.7751   -1.6905    0.0000 C   0  0  1  0  0  0  0  0  0  0  0  0
    5.3626    0.4529    0.0000 C   0  0  1  0  0  0  0  0  0  0  0  0
    6.6001   -1.6905    0.0000 C   0  0  0  0  0  0  0  0  0  0  0  0
    5.7751    1.1675    0.0000 C   0  0  2  0  0  0  0  0  0  0  0  0
    7.0127   -0.9760    0.0000 C   0  0  2  0  0  0  0  0  0  0  0  0
    4.1251   -1.6905    0.0000 C   0  0  2  0  0  0  0  0  0  0  0  0
    4.1251    1.1675    0.0000 C   0  0  2  0  0  0  0  0  0  0  0  0
    4.1251    2.5964    0.0000 C   0  0  2  0  0  0  0  0  0  0  0  0
    6.6001   -0.2615    0.0000 C   0  0  0  0  0  0  0  0  0  0  0  0
    3.3001   -1.6905    0.0000 C   0  0  1  0  0  0  0  0  0  0  0  0
    2.8876   -2.4050    0.0000 C   0  0  2  0  0  0  0  0  0  0  0  0
    4.5376    1.8819    0.0000 C   0  0  0  0  0  0  0  0  0  0  0  0
    5.1918   -2.2739    0.0000 C   0  0  0  0  0  0  0  0  0  0  0  0
    3.3001    2.5964    0.0000 C   0  0  2  0  0  0  0  0  0  0  0  0
    8.2502   -0.2615    0.0000 C   0  0  2  0  0  0  0  0  0  0  0  0
    8.2502    1.1675    0.0000 C   0  0  1  0  0  0  0  0  0  0  0  0
    3.3001   -3.1195    0.0000 C   0  0  0  0  0  0  0  0  0  0  0  0
    7.8377    0.4529    0.0000 C   0  0  2  0  0  0  0  0  0  0  0  0
    2.8876    1.8819    0.0000 C   0  0  2  0  0  0  0  0  0  0  0  0
    7.8377   -0.9760    0.0000 C   0  0  0  0  0  0  0  0  0  0  0  0
    4.1251   -3.1195    0.0000 C   0  0  1  0  0  0  0  0  0  0  0  0
    7.8377    1.8819    0.0000 C   0  0  1  0  0  0  0  0  0  0  0  0
    6.6001    1.1675    0.0000 C   0  0  0  0  0  0  0  0  0  0  0  0
    5.3626    1.8819    0.0000 C   0  0  0  0  0  0  0  0  0  0  0  0
    6.1876   -0.9760    0.0000 C   0  0  0  0  0  0  0  0  0  0  0  0
    4.8396    3.0089    0.0000 C   0  0  0  0  0  0  0  0  0  0  0  0
    9.0752   -0.2615    0.0000 C   0  0  0  0  0  0  0  0  0  0  0  0
    8.9260    0.6943    0.0000 C   0  0  0  0  0  0  0  0  0  0  0  0
    8.2502    2.5964    0.0000 C   0  0  0  0  0  0  0  0  0  0  0  0
    2.0625    1.8819    0.0000 C   0  0  0  0  0  0  0  0  0  0  0  0
    4.5376   -3.8339    0.0000 C   0  0  0  0  0  0  0  0  0  0  0  0
    1.6500   -3.1195    0.0000 C   0  0  0  0  0  0  0  0  0  0  0  0
    1.6500   -1.6905    0.0000 C   0  0  0  0  0  0  0  0  0  0  0  0
    7.8377    3.3109    0.0000 C   0  0  0  0  0  0  0  0  0  0  0  0
    4.8396    3.8339    0.0000 C   0  0  0  0  0  0  0  0  0  0  0  0
 15  1  1  6  0  0  0
 22  1  1  6  0  0  0
 18  2  1  6  0  0  0
 23  2  1  6  0  0  0
 17  3  1  1  0  0  0
  4 22  1  0  0  0  0
  4 37  1  0  0  0  0
  5 23  1  0  0  0  0
  5 35  1  0  0  0  0
  6 38  1  0  0  0  0
  6 39  1  0  0  0  0
 24  7  1  6  0  0  0
  7 51  1  0  0  0  0
 26  8  1  1  0  0  0
 30  9  1  6  0  0  0
 32 10  1  1  0  0  0
 34 11  1  1  0  0  0
 12 36  2  0  0  0  0
 13 39  2  0  0  0  0
 27 14  1  6  0  0  0
 14 48  1  0  0  0  0
 14 49  1  0  0  0  0
 15 16  1  0  0  0  0
 15 17  1  0  0  0  0
 16 18  1  0  0  0  0
 16 25  1  6  0  0  0
 17 19  1  0  0  0  0
 17 29  1  0  0  0  0
 18 20  1  0  0  0  0
 19 21  1  0  0  0  0
 20 39  1  0  0  0  0
 20 40  1  1  0  0  0
 21 36  1  0  0  0  0
 21 41  1  1  0  0  0
 22 26  1  0  0  0  0
 23 28  1  0  0  0  0
 24 28  1  0  0  0  0
 24 30  1  0  0  0  0
 24 42  1  0  0  0  0
 26 27  1  0  0  0  0
 27 33  1  0  0  0  0
 30 35  1  0  0  0  0
 31 34  1  0  0  0  0
 31 36  1  0  0  0  0
 31 43  1  1  0  0  0
 32 34  1  0  0  0  0
 32 38  1  0  0  0  0
 32 44  1  0  0  0  0
 33 37  1  0  0  0  0
 35 46  1  1  0  0  0
 37 47  1  6  0  0  0
 38 45  1  6  0  0  0
 45 50  1  0  0  0  0
M  END
> <DATABASE_ID>
DB00199

> <DATABASE_NAME>
drugbank

> <SMILES>
CC[C@H]1OC(=O)[C@H](C)[C@@H](O[C@H]2C[C@@](C)(OC)[C@@H](O)[C@H](C)O2)[C@H](C)[C@@H](O[C@@H]2O[C@H](C)C[C@@H]([C@H]2O)N(C)C)[C@](C)(O)C[C@@H](C)C(=O)[C@H](C)[C@@H](O)[C@]1(C)O

> <INCHI_IDENTIFIER>
InChI=1S/C37H67NO13/c1-14-25-37(10,45)30(41)20(4)27(39)18(2)16-35(8,44)32(51-34-28(40)24(38(11)12)15-19(3)47-34)21(5)29(22(6)33(43)49-25)50-26-17-36(9,46-13)31(42)23(7)48-26/h18-26,28-32,34,40-42,44-45H,14-17H2,1-13H3/t18-,19-,20+,21+,22-,23+,24+,25-,26+,28-,29+,30-,31+,32-,34+,35-,36-,37-/m1/s1

> <INCHI_KEY>
ULGZDMOVFRHVEP-RWJQBGPGSA-N

> <FORMULA>
C37H67NO13

> <MOLECULAR_WEIGHT>
733.9268

> <EXACT_MASS>
733.461241235

> <JCHEM_ACCEPTOR_COUNT>
13

> <JCHEM_AVERAGE_POLARIZABILITY>
78.21474107799995

> <JCHEM_BIOAVAILABILITY>
0

> <JCHEM_DONOR_COUNT>
5

> <JCHEM_FORMAL_CHARGE>
0

> <JCHEM_GHOSE_FILTER>
0

> <JCHEM_IUPAC>
(3R,4S,5S,6R,7R,9R,11R,12R,13S,14R)-6-{[(2S,3R,4S,6R)-4-(dimethylamino)-3-hydroxy-6-methyloxan-2-yl]oxy}-14-ethyl-7,12,13-trihydroxy-4-{[(2R,4R,5S,6S)-5-hydroxy-4-methoxy-4,6-dimethyloxan-2-yl]oxy}-3,5,7,9,11,13-hexamethyl-1-oxacyclotetradecane-2,10-dione

> <ALOGPS_LOGP>
2.37

> <JCHEM_LOGP>
2.596388847333333

> <ALOGPS_LOGS>
-3.20

> <JCHEM_MDDR_LIKE_RULE>
1

> <JCHEM_NUMBER_OF_RINGS>
3

> <JCHEM_PHYSIOLOGICAL_CHARGE>
1

> <JCHEM_PKA>
12.90862050588721

> <JCHEM_PKA_STRONGEST_ACIDIC>
12.438841177083088

> <JCHEM_PKA_STRONGEST_BASIC>
8.380974796874835

> <JCHEM_POLAR_SURFACE_AREA>
193.91

> <JCHEM_REFRACTIVITY>
186.03709999999998

> <JCHEM_ROTATABLE_BOND_COUNT>
7

> <JCHEM_RULE_OF_FIVE>
0

> <ALOGPS_SOLUBILITY>
4.59e-01 g/l

> <JCHEM_TRADITIONAL_IUPAC>
erythromycin

> <JCHEM_VEBER_RULE>
0

> <DRUGBANK_ID>
DB00199

> <SECONDARY_ACCESSION_NUMBERS>
APRD00953

> <DRUG_GROUPS>
approved; investigational; vet_approved

> <GENERIC_NAME>
Erythromycin

> <SYNONYMS>
3''-O-demethylerythromycin; Abomacetin; Eritromicina; Erythromycin; Erythromycin A; Erythromycin C; érythromycine; Erythromycinum

> <PRODUCTS>
Akne-mycin; Aktipak; Alti-erythromycin Tab 250mg USP; Benzamycin; Benzamycin Pak; E.E.S.; E.E.s; E.E.s 400; ERYTHROMYCIN Base Filmtab; Ees 600 Tablets 600mg; Ees-200; Ees-200 Chewable Tbs (eryped); Ees-400; Emycin Ect 250mg; Ery; Ery-Ped; Ery-Tab; Ery-tab; EryPed; EryPed 200; EryPed 400; EryPed Drops; Erybid; Eryc; Eryc Delayed-release Capsules; Erygel; Erymycin Ophthalmic Ointment 5mg/g; Erysol; Erythra-Derm; Erythro-500 Tab 500mg USP; Erythro-EC; Erythro-ES; Erythro-ES Tab 600mg USP; Erythro-S; Erythro-base; Erythro-base Tab 250mg USP; Erythrocin Filmtab 250mg; Erythrocin Filmtab 500mg; Erythrocin I.V.; Erythrocin IV; Erythrocin Lactobionate; Erythrocin Liq 250; Erythrocin Liquid 125; Erythrocin Stearate; Erythromid Tab 250mg; Erythromycin; Erythromycin Base; Erythromycin Base Base; Erythromycin Base Filmtab; Erythromycin Capsules USP 250mg; Erythromycin Ethylsuccinate; Erythromycin Ethylsuccinate and Sulfisoxazole Acetyl; Erythromycin Gel; Erythromycin Ophthalmic Ointment U.S.P.; Erythromycin Stearate Tablets USP 250mg; Erythromycin and Benzoyl Peroxide; Erythromycin-Benzoyl Peroxide; Erythromycine 250 Tab; Euro-erythromycin Ophthalmic Ointment USP; Ilosone 250mg Pulvule 375; Ilosone Liquid 125mg/5ml; Ilosone Liquid 250mg/5ml; Ilotycin; Ilotycin Cryst Op Ont 0.5% 52; Ilotycin Gluceptate IV Ampoule 646 1gm; Maxitril; Mytrophene; Novo-rythro Encap 250mg; Novo-rythro Estolate Cap 250mg; Novo-rythro Estolate Suspension; Novo-rythro Ethylsuccinate Pwr 400mg/5ml; Novo-rythro Ethylsuccinate Pws; Novo-rythro Stearate Tab 250mg; Nu-erythromycin-S 250mg Tablets; Odan-erythromycin; Onguent Ophtalmique D'erythromycine USP; PMS-erythromycin; Pce; Pdp-erythromycin; Pediazole; Sans-acne Solution; Staticin; Sterile Erythromycin Lactobionate Pws 1000mg; Sterile Erythromycin Lactobionate Pws 500mg; Stievamycin Forte; Stievamycin Mild; Stievamycin Regular; T-Stat; T-stat Lot; T-stat Pad-lot

> <INTERNATIONAL_BRANDS>
Ilosone

> <SALTS>
Erythromycin estolate; Erythromycin ethylsuccinate; Erythromycin gluceptate; Erythromycin lactobionate; Erythromycin phosphate; Erythromycin stearate; Erythromycin sulfate; Erythromycin thiocyanate

$$$$

  Mrv0541 04191212112D          

 52 54  0  0  0  0            999 V2000
   -3.2657    2.7280    0.0000 N   0  0  0  0  0  0  0  0  0  0  0  0
   -1.7679    2.7107    0.0000 C   0  0  0  0  0  0  0  0  0  0  0  0
   -3.6782    2.0135    0.0000 C   0  0  1  0  0  0  0  0  0  0  0  0
   -1.3554    1.9962    0.0000 C   0  0  1  0  0  0  0  0  0  0  0  0
   -1.7679    1.2818    0.0000 C   0  0  0  0  0  0  0  0  0  0  0  0
   -1.1845    0.6984    0.0000 C   0  0  2  0  0  0  0  0  0  0  0  0
   -1.1845   -0.1266    0.0000 C   0  0  1  0  0  0  0  0  0  0  0  0
   -1.7679   -0.7100    0.0000 C   0  0  2  0  0  0  0  0  0  0  0  0
   -1.7679   -1.5350    0.0000 C   0  0  1  0  0  0  0  0  0  0  0  0
   -2.4823   -1.9475    0.0000 C   0  0  2  0  0  0  0  0  0  0  0  0
   -3.1968   -1.5350    0.0000 C   0  0  0  0  0  0  0  0  0  0  0  0
   -3.1968   -0.7100    0.0000 O   0  0  0  0  0  0  0  0  0  0  0  0
   -3.9113   -0.2975    0.0000 C   0  0  1  0  0  0  0  0  0  0  0  0
   -3.9113    0.5275    0.0000 C   0  0  2  0  0  0  0  0  0  0  0  0
   -3.3279    1.1109    0.0000 C   0  0  2  0  0  0  0  0  0  0  0  0
   -3.2657    3.5530    0.0000 C   0  0  0  0  0  0  0  0  0  0  0  0
   -4.4751    2.2270    0.0000 C   0  0  0  0  0  0  0  0  0  0  0  0
   -2.5310    0.8974    0.0000 O   0  0  0  0  0  0  0  0  0  0  0  0
   -4.6258    0.9400    0.0000 O   0  0  0  0  0  0  0  0  0  0  0  0
   -2.4823   -2.7725    0.0000 C   0  0  0  0  0  0  0  0  0  0  0  0
   -0.3876    0.9119    0.0000 O   0  0  0  0  0  0  0  0  0  0  0  0
   -0.5585    2.2097    0.0000 C   0  0  0  0  0  0  0  0  0  0  0  0
   -0.4700    0.2859    0.0000 C   0  0  0  0  0  0  0  0  0  0  0  0
   -4.6258    0.1150    0.0000 C   0  0  0  0  0  0  0  0  0  0  0  0
   -4.6258   -0.7100    0.0000 C   0  0  0  0  0  0  0  0  0  0  0  0
   -0.6394   -3.2068    0.0000 O   0  0  0  0  0  0  0  0  0  0  0  0
    0.5612   -0.6851    0.0000 O   0  0  0  0  0  0  0  0  0  0  0  0
   -3.9113   -1.9475    0.0000 O   0  0  0  0  0  0  0  0  0  0  0  0
   -5.4508   -0.7100    0.0000 C   0  0  0  0  0  0  0  0  0  0  0  0
   -0.6394   -4.0318    0.0000 C   0  0  1  0  0  0  0  0  0  0  0  0
    1.7987   -1.3996    0.0000 C   0  0  1  0  0  0  0  0  0  0  0  0
    0.9737   -1.3996    0.0000 C   0  0  1  0  0  0  0  0  0  0  0  0
    0.5612   -2.1141    0.0000 O   0  0  0  0  0  0  0  0  0  0  0  0
    0.9736   -2.8286    0.0000 C   0  0  1  0  0  0  0  0  0  0  0  0
    1.7986   -2.8286    0.0000 C   0  0  0  0  0  0  0  0  0  0  0  0
    2.2112   -2.1141    0.0000 C   0  0  2  0  0  0  0  0  0  0  0  0
    0.1856   -4.0318    0.0000 C   0  0  0  0  0  0  0  0  0  0  0  0
   -1.0519   -4.7463    0.0000 O   0  0  0  0  0  0  0  0  0  0  0  0
   -0.6395   -5.4608    0.0000 C   0  0  2  0  0  0  0  0  0  0  0  0
    0.1855   -5.4608    0.0000 C   0  0  1  0  0  0  0  0  0  0  0  0
    0.5981   -4.7463    0.0000 C   0  0  1  0  0  0  0  0  0  0  0  0
    2.3820   -0.8162    0.0000 O   0  0  0  0  0  0  0  0  0  0  0  0
   -1.2228   -6.0441    0.0000 C   0  0  0  0  0  0  0  0  0  0  0  0
    1.1814   -5.3296    0.0000 C   0  0  0  0  0  0  0  0  0  0  0  0
    0.5611   -3.5430    0.0000 C   0  0  0  0  0  0  0  0  0  0  0  0
    3.0362   -2.1141    0.0000 N   0  0  0  0  0  0  0  0  0  0  0  0
    1.1814   -4.1629    0.0000 O   0  0  0  0  0  0  0  0  0  0  0  0
    0.5980   -6.1752    0.0000 O   0  0  0  0  0  0  0  0  0  0  0  0
    2.0064   -4.1629    0.0000 C   0  0  0  0  0  0  0  0  0  0  0  0
    3.6195   -1.5307    0.0000 C   0  0  0  0  0  0  0  0  0  0  0  0
    3.4487   -2.8286    0.0000 C   0  0  0  0  0  0  0  0  0  0  0  0
   -2.4824   -0.2975    0.0000 C   0  0  0  0  0  0  0  0  0  0  0  0
  1  2  1  0  0  0  0
  1  3  1  0  0  0  0
  2  4  1  0  0  0  0
  4  5  1  0  0  0  0
  5  6  1  0  0  0  0
  6  7  1  0  0  0  0
  7  8  1  0  0  0  0
  8  9  1  0  0  0  0
  9 10  1  0  0  0  0
 10 11  1  0  0  0  0
 11 12  1  0  0  0  0
 12 13  1  0  0  0  0
 13 14  1  0  0  0  0
 14 15  1  0  0  0  0
 15  3  1  0  0  0  0
  1 16  1  0  0  0  0
  3 17  1  1  0  0  0
 15 18  1  1  0  0  0
 14 19  1  1  0  0  0
 10 20  1  1  0  0  0
  6 21  1  1  0  0  0
  4 22  1  6  0  0  0
  6 23  1  6  0  0  0
 14 24  1  6  0  0  0
 13 25  1  6  0  0  0
  9 26  1  6  0  0  0
  7 27  1  6  0  0  0
 11 28  2  0  0  0  0
 25 29  1  0  0  0  0
 32 27  1  1  0  0  0
 30 26  1  1  0  0  0
 31 32  1  0  0  0  0
 32 33  1  0  0  0  0
 33 34  1  0  0  0  0
 34 35  1  0  0  0  0
 35 36  1  0  0  0  0
 31 36  1  0  0  0  0
 37 30  1  0  0  0  0
 30 38  1  0  0  0  0
 38 39  1  0  0  0  0
 39 40  1  0  0  0  0
 40 41  1  0  0  0  0
 37 41  1  0  0  0  0
 31 42  1  6  0  0  0
 39 43  1  6  0  0  0
 41 44  1  6  0  0  0
 34 45  1  1  0  0  0
 36 46  1  1  0  0  0
 41 47  1  1  0  0  0
 40 48  1  1  0  0  0
 47 49  1  0  0  0  0
 46 50  1  0  0  0  0
 46 51  1  0  0  0  0
  8 52  1  6  0  0  0
M  END
> <DATABASE_ID>
DB00207

> <DATABASE_NAME>
drugbank

> <SMILES>
CC[C@H]1OC(=O)[C@H](C)[C@@H](O[C@H]2C[C@@](C)(OC)[C@@H](O)[C@H](C)O2)[C@H](C)[C@@H](O[C@@H]2O[C@H](C)C[C@@H]([C@H]2O)N(C)C)[C@](C)(O)C[C@@H](C)CN(C)[C@H](C)[C@@H](O)[C@]1(C)O

> <INCHI_IDENTIFIER>
InChI=1S/C38H72N2O12/c1-15-27-38(10,46)31(42)24(6)40(13)19-20(2)17-36(8,45)33(52-35-29(41)26(39(11)12)16-21(3)48-35)22(4)30(23(5)34(44)50-27)51-28-18-37(9,47-14)32(43)25(7)49-28/h20-33,35,41-43,45-46H,15-19H2,1-14H3/t20-,21-,22+,23-,24-,25+,26+,27-,28+,29-,30+,31-,32+,33-,35+,36-,37-,38-/m1/s1

> <INCHI_KEY>
MQTOSJVFKKJCRP-BICOPXKESA-N

> <FORMULA>
C38H72N2O12

> <MOLECULAR_WEIGHT>
748.9845

> <EXACT_MASS>
748.508525778

> <JCHEM_ACCEPTOR_COUNT>
13

> <JCHEM_AVERAGE_POLARIZABILITY>
83.10923293200645

> <JCHEM_BIOAVAILABILITY>
0

> <JCHEM_DONOR_COUNT>
5

> <JCHEM_FORMAL_CHARGE>
0

> <JCHEM_GHOSE_FILTER>
0

> <JCHEM_IUPAC>
(2R,3S,4R,5R,8R,10R,11R,12S,13S,14R)-11-{[(2S,3R,4S,6R)-4-(dimethylamino)-3-hydroxy-6-methyloxan-2-yl]oxy}-2-ethyl-3,4,10-trihydroxy-13-{[(2R,4R,5S,6S)-5-hydroxy-4-methoxy-4,6-dimethyloxan-2-yl]oxy}-3,5,6,8,10,12,14-heptamethyl-1-oxa-6-azacyclopentadecan-15-one

> <ALOGPS_LOGP>
3.03

> <JCHEM_LOGP>
2.4447815993333313

> <ALOGPS_LOGS>
-3.16

> <JCHEM_MDDR_LIKE_RULE>
1

> <JCHEM_NUMBER_OF_RINGS>
3

> <JCHEM_PHYSIOLOGICAL_CHARGE>
2

> <JCHEM_PKA>
12.89815406880848

> <JCHEM_PKA_STRONGEST_ACIDIC>
12.428323628576404

> <JCHEM_PKA_STRONGEST_BASIC>
9.569664875084948

> <JCHEM_POLAR_SURFACE_AREA>
180.08

> <JCHEM_REFRACTIVITY>
194.1082

> <JCHEM_ROTATABLE_BOND_COUNT>
7

> <JCHEM_RULE_OF_FIVE>
0

> <ALOGPS_SOLUBILITY>
5.14e-01 g/l

> <JCHEM_TRADITIONAL_IUPAC>
azithromycin

> <JCHEM_VEBER_RULE>
0

> <DRUGBANK_ID>
DB00207

> <SECONDARY_ACCESSION_NUMBERS>
APRD00397

> <DRUG_GROUPS>
approved

> <GENERIC_NAME>
Azithromycin

> <SYNONYMS>
Azithromycin; Azithromycine; Azithromycinum; Azitromicina

> <PRODUCTS>
Act Azithromycin; Ag-azithromycin; Apo-azithromycin; Apo-azithromycin Z; Auro-azithromycin; Ava-azithromycin; AzaSITE; AzaSite; Azithromycin; Azithromycin Dihydrate; Azithromycin Monohydrate; Azithromycin dihydrate; Azithromycin for Injection; Azithromycin for Injection USP; Azithromycin for Injection, USP; Azithromycin monohydrate; Dom-azithromycin; Gd-azithromycin; Ipg-azithromycin; Jamp-azithromycin; Mar-azithromycin; Mylan-azithromycin; Mylan-azithromycin for Injection; Novo-azithromycin Pediatric; Nra-azithromycin; PHL-azithromycin; PMS-azithromycin; Pro-azithromycine; Ratio Azithromycin; Riva Azithromycin; Riva-azithromycin; Sandoz Azithromycin; Teva-azithromycin; Zithromax; Zithromax - Pws Orl 100mg/5ml; Zithromax 600mg; Zithromax Cap 250mg; Zithromax for Intravenous Injection; Zmax; Zmax SR

> <INTERNATIONAL_BRANDS>
Azenil; Azibiot; Azifast; Azigram; Azimakrol; Azin; Azithrocin; Azitromax; Azitromin; Aztrin; Hemomycin; Misultina; Penalox; Sumamed; Vinzam; Zifin; Zitrocin; Zitrotek

> <SALTS>
Azithromycin dihydrate; Azithromycin monohydrate

$$$$
152946
  -OEChem-10051719103D

 53 57  0     1  0  0  0  0  0999 V2000
   -1.4919    2.8370   -0.0982 F   0  0  0  0  0  0  0  0  0  0  0  0
   -0.4618   -1.7666   -0.3616 O   0  0  0  0  0  0  0  0  0  0  0  0
    3.5304    2.7033    0.2066 O   0  0  0  0  0  0  0  0  0  0  0  0
    5.8572    1.7382    0.9252 O   0  0  0  0  0  0  0  0  0  0  0  0
    6.4486   -0.0925   -0.3112 O   0  0  0  0  0  0  0  0  0  0  0  0
   -2.3018    0.2264   -0.3360 N   0  0  3  0  0  0  0  0  0  0  0  0
   -5.4691   -1.3038    0.7445 N   0  0  0  0  0  0  0  0  0  0  0  0
    2.3781   -1.1918   -0.1415 N   0  0  0  0  0  0  0  0  0  0  0  0
   -4.5880    0.3686   -0.9370 C   0  0  2  0  0  0  0  0  0  0  0  0
   -4.3552   -0.9016   -0.1101 C   0  0  1  0  0  0  0  0  0  0  0  0
   -3.1685    0.7134   -1.4124 C   0  0  0  0  0  0  0  0  0  0  0  0
   -3.0288   -0.6205    0.6124 C   0  0  0  0  0  0  0  0  0  0  0  0
   -5.2013    1.5031   -0.1061 C   0  0  0  0  0  0  0  0  0  0  0  0
    2.0949   -2.6411   -0.2625 C   0  0  0  0  0  0  0  0  0  0  0  0
   -6.4000    0.9965    0.6865 C   0  0  0  0  0  0  0  0  0  0  0  0
    2.6185   -3.6064    0.7464 C   0  0  0  0  0  0  0  0  0  0  0  0
    1.1484   -3.3140    0.6734 C   0  0  0  0  0  0  0  0  0  0  0  0
   -6.0123   -0.2047    1.5447 C   0  0  0  0  0  0  0  0  0  0  0  0
   -0.9604    0.5275   -0.2295 C   0  0  0  0  0  0  0  0  0  0  0  0
    1.3688   -0.1870   -0.1335 C   0  0  0  0  0  0  0  0  0  0  0  0
    0.0010   -0.4869   -0.2413 C   0  0  0  0  0  0  0  0  0  0  0  0
    1.7394    1.1699   -0.0134 C   0  0  0  0  0  0  0  0  0  0  0  0
   -0.5743    1.8594   -0.1100 C   0  0  0  0  0  0  0  0  0  0  0  0
    3.7056   -0.8260   -0.0317 C   0  0  0  0  0  0  0  0  0  0  0  0
    0.7751    2.1854   -0.0017 C   0  0  0  0  0  0  0  0  0  0  0  0
    4.1633    0.4265    0.0865 C   0  0  0  0  0  0  0  0  0  0  0  0
    3.1757    1.5356    0.1029 C   0  0  0  0  0  0  0  0  0  0  0  0
    5.6086    0.6325    0.1919 C   0  0  0  0  0  0  0  0  0  0  0  0
   -0.6002   -2.2802   -1.6832 C   0  0  0  0  0  0  0  0  0  0  0  0
   -5.2454    0.1655   -1.7912 H   0  0  0  0  0  0  0  0  0  0  0  0
   -4.1776   -1.7279   -0.8128 H   0  0  0  0  0  0  0  0  0  0  0  0
   -2.9344    0.1713   -2.3358 H   0  0  0  0  0  0  0  0  0  0  0  0
   -3.0558    1.7851   -1.6040 H   0  0  0  0  0  0  0  0  0  0  0  0
   -3.1675   -0.0655    1.5464 H   0  0  0  0  0  0  0  0  0  0  0  0
   -2.5225   -1.5595    0.8533 H   0  0  0  0  0  0  0  0  0  0  0  0
   -5.5077    2.3230   -0.7660 H   0  0  0  0  0  0  0  0  0  0  0  0
   -4.4628    1.9225    0.5889 H   0  0  0  0  0  0  0  0  0  0  0  0
    2.1223   -2.9754   -1.2946 H   0  0  0  0  0  0  0  0  0  0  0  0
   -6.7859    1.7986    1.3256 H   0  0  0  0  0  0  0  0  0  0  0  0
   -7.2076    0.7177   -0.0019 H   0  0  0  0  0  0  0  0  0  0  0  0
   -5.1743   -2.0595    1.3620 H   0  0  0  0  0  0  0  0  0  0  0  0
    3.1551   -3.2347    1.6108 H   0  0  0  0  0  0  0  0  0  0  0  0
    2.9589   -4.5722    0.3931 H   0  0  0  0  0  0  0  0  0  0  0  0
    0.5255   -4.1241    0.3123 H   0  0  0  0  0  0  0  0  0  0  0  0
    0.7475   -2.7932    1.5362 H   0  0  0  0  0  0  0  0  0  0  0  0
   -5.2980    0.0974    2.3189 H   0  0  0  0  0  0  0  0  0  0  0  0
   -6.9036   -0.5675    2.0686 H   0  0  0  0  0  0  0  0  0  0  0  0
    4.3899   -1.6690   -0.0569 H   0  0  0  0  0  0  0  0  0  0  0  0
    1.0558    3.2308    0.0905 H   0  0  0  0  0  0  0  0  0  0  0  0
    0.2210   -1.9660   -2.3358 H   0  0  0  0  0  0  0  0  0  0  0  0
   -1.5472   -1.9408   -2.1130 H   0  0  0  0  0  0  0  0  0  0  0  0
   -0.6250   -3.3724   -1.6415 H   0  0  0  0  0  0  0  0  0  0  0  0
    6.8185    1.9102    1.0186 H   0  0  0  0  0  0  0  0  0  0  0  0
  1 23  1  0  0  0  0
  2 21  1  0  0  0  0
  2 29  1  0  0  0  0
  3 27  2  0  0  0  0
  4 28  1  0  0  0  0
  4 53  1  0  0  0  0
  5 28  2  0  0  0  0
  6 11  1  0  0  0  0
  6 12  1  0  0  0  0
  6 19  1  0  0  0  0
  7 10  1  0  0  0  0
  7 18  1  0  0  0  0
  7 41  1  0  0  0  0
  8 14  1  0  0  0  0
  8 20  1  0  0  0  0
  8 24  1  0  0  0  0
  9 10  1  0  0  0  0
  9 11  1  0  0  0  0
  9 13  1  0  0  0  0
  9 30  1  0  0  0  0
 10 12  1  0  0  0  0
 10 31  1  0  0  0  0
 11 32  1  0  0  0  0
 11 33  1  0  0  0  0
 12 34  1  0  0  0  0
 12 35  1  0  0  0  0
 13 15  1  0  0  0  0
 13 36  1  0  0  0  0
 13 37  1  0  0  0  0
 14 16  1  0  0  0  0
 14 17  1  0  0  0  0
 14 38  1  0  0  0  0
 15 18  1  0  0  0  0
 15 39  1  0  0  0  0
 15 40  1  0  0  0  0
 16 17  1  0  0  0  0
 16 42  1  0  0  0  0
 16 43  1  0  0  0  0
 17 44  1  0  0  0  0
 17 45  1  0  0  0  0
 18 46  1  0  0  0  0
 18 47  1  0  0  0  0
 19 21  1  0  0  0  0
 19 23  2  0  0  0  0
 20 21  2  0  0  0  0
 20 22  1  0  0  0  0
 22 25  2  0  0  0  0
 22 27  1  0  0  0  0
 23 25  1  0  0  0  0
 24 26  2  0  0  0  0
 24 48  1  0  0  0  0
 25 49  1  0  0  0  0
 26 27  1  0  0  0  0
 26 28  1  0  0  0  0
 29 50  1  0  0  0  0
 29 51  1  0  0  0  0
 29 52  1  0  0  0  0
M  END
> <DATABASE_ID>
DB00218

> <DATABASE_NAME>
drugbank

> <ORIGINAL_SOURCE>
PUBCHEM

> <ORIGINAL_SOURCE_URL>
https://pubchem.ncbi.nlm.nih.gov/rest/pug/compound/inchikey/FABPRXSRWADJSP-MEDUHNTESA-N/SDF?record_type=3d

> <SMILES>
[H][C@]12CN(C[C@@]1([H])NCCC2)C1=C(F)C=C2C(=O)C(=CN(C3CC3)C2=C1OC)C(O)=O

> <INCHI_IDENTIFIER>
InChI=1S/C21H24FN3O4/c1-29-20-17-13(19(26)14(21(27)28)9-25(17)12-4-5-12)7-15(22)18(20)24-8-11-3-2-6-23-16(11)10-24/h7,9,11-12,16,23H,2-6,8,10H2,1H3,(H,27,28)/t11-,16+/m0/s1

> <INCHI_KEY>
FABPRXSRWADJSP-MEDUHNTESA-N

> <FORMULA>
C21H24FN3O4

> <MOLECULAR_WEIGHT>
401.4314

> <EXACT_MASS>
401.175084476

> <JCHEM_ACCEPTOR_COUNT>
7

> <JCHEM_AVERAGE_POLARIZABILITY>
41.24465784304949

> <JCHEM_BIOAVAILABILITY>
1

> <JCHEM_DONOR_COUNT>
2

> <JCHEM_FORMAL_CHARGE>
0

> <JCHEM_GHOSE_FILTER>
0

> <JCHEM_IUPAC>
7-[(4aS,7aS)-octahydro-1H-pyrrolo[3,4-b]pyridin-6-yl]-1-cyclopropyl-6-fluoro-8-methoxy-4-oxo-1,4-dihydroquinoline-3-carboxylic acid

> <ALOGPS_LOGP>
0.01

> <JCHEM_LOGP>
-0.4989749388152805

> <ALOGPS_LOGS>
-3.38

> <JCHEM_MDDR_LIKE_RULE>
0

> <JCHEM_NUMBER_OF_RINGS>
5

> <JCHEM_PHYSIOLOGICAL_CHARGE>
0

> <JCHEM_PKA_STRONGEST_ACIDIC>
5.6861297847146455

> <JCHEM_PKA_STRONGEST_BASIC>
9.423932936543999

> <JCHEM_POLAR_SURFACE_AREA>
82.11

> <JCHEM_REFRACTIVITY>
106.22399999999999

> <JCHEM_ROTATABLE_BOND_COUNT>
4

> <JCHEM_RULE_OF_FIVE>
1

> <ALOGPS_SOLUBILITY>
1.68e-01 g/l

> <JCHEM_TRADITIONAL_IUPAC>
moxifloxacin

> <JCHEM_VEBER_RULE>
0

$$$$
5905
  -OEChem-10031812023D

 28 29  0     1  0  0  0  0  0999 V2000
   -2.6313   -3.0212    0.3530 I   0  0  0  0  0  0  0  0  0  0  0  0
    1.6065   -0.1760   -0.9977 O   0  0  0  0  0  0  0  0  0  0  0  0
    3.8614    1.5505    0.1454 O   0  0  0  0  0  0  0  0  0  0  0  0
    2.2565   -2.8769   -0.6283 O   0  0  0  0  0  0  0  0  0  0  0  0
   -1.0880    2.8798   -0.3553 O   0  0  0  0  0  0  0  0  0  0  0  0
   -4.3664   -0.2867    0.2110 O   0  0  0  0  0  0  0  0  0  0  0  0
   -0.4267    0.6477   -0.1840 N   0  0  0  0  0  0  0  0  0  0  0  0
   -2.7084    1.2819   -0.0733 N   0  0  0  0  0  0  0  0  0  0  0  0
    3.0541    0.5363    0.7395 C   0  0  1  0  0  0  0  0  0  0  0  0
    0.9748    0.9182   -0.3182 C   0  0  1  0  0  0  0  0  0  0  0  0
    1.6741    1.0841    1.0212 C   0  0  0  0  0  0  0  0  0  0  0  0
    2.7860   -0.5705   -0.2707 C   0  0  1  0  0  0  0  0  0  0  0  0
    2.5037   -1.9159    0.3853 C   0  0  0  0  0  0  0  0  0  0  0  0
   -1.3777    1.6897   -0.2152 C   0  0  0  0  0  0  0  0  0  0  0  0
   -0.8344   -0.6708   -0.0206 C   0  0  0  0  0  0  0  0  0  0  0  0
   -2.1095   -1.0550    0.1154 C   0  0  0  0  0  0  0  0  0  0  0  0
   -3.1746   -0.0153    0.0923 C   0  0  0  0  0  0  0  0  0  0  0  0
    3.5729    0.1852    1.6364 H   0  0  0  0  0  0  0  0  0  0  0  0
    1.1230    1.8131   -0.9343 H   0  0  0  0  0  0  0  0  0  0  0  0
    1.1888    0.4800    1.7974 H   0  0  0  0  0  0  0  0  0  0  0  0
    1.6649    2.1273    1.3524 H   0  0  0  0  0  0  0  0  0  0  0  0
    3.5944   -0.6701   -1.0035 H   0  0  0  0  0  0  0  0  0  0  0  0
    1.6514   -1.8910    1.0680 H   0  0  0  0  0  0  0  0  0  0  0  0
    3.3804   -2.2442    0.9538 H   0  0  0  0  0  0  0  0  0  0  0  0
    3.9605    2.2634    0.7993 H   0  0  0  0  0  0  0  0  0  0  0  0
   -0.0661   -1.4265   -0.0124 H   0  0  0  0  0  0  0  0  0  0  0  0
   -3.4101    2.0168   -0.0931 H   0  0  0  0  0  0  0  0  0  0  0  0
    2.0955   -3.7266   -0.1839 H   0  0  0  0  0  0  0  0  0  0  0  0
  1 16  1  0  0  0  0
  2 10  1  0  0  0  0
  2 12  1  0  0  0  0
  3  9  1  0  0  0  0
  3 25  1  0  0  0  0
  4 13  1  0  0  0  0
  4 28  1  0  0  0  0
  5 14  2  0  0  0  0
  6 17  2  0  0  0  0
  7 10  1  0  0  0  0
  7 14  1  0  0  0  0
  7 15  1  0  0  0  0
  8 14  1  0  0  0  0
  8 17  1  0  0  0  0
  8 27  1  0  0  0  0
  9 11  1  0  0  0  0
  9 12  1  0  0  0  0
  9 18  1  0  0  0  0
 10 11  1  0  0  0  0
 10 19  1  0  0  0  0
 11 20  1  0  0  0  0
 11 21  1  0  0  0  0
 12 13  1  0  0  0  0
 12 22  1  0  0  0  0
 13 23  1  0  0  0  0
 13 24  1  0  0  0  0
 15 16  2  0  0  0  0
 15 26  1  0  0  0  0
 16 17  1  0  0  0  0
M  END
> <DATABASE_ID>
DB00249

> <DATABASE_NAME>
drugbank

> <ORIGINAL_SOURCE>
PUBCHEM

> <ORIGINAL_SOURCE_URL>
https://pubchem.ncbi.nlm.nih.gov/rest/pug/compound/inchikey/XQFRJNBWHJMXHO-RRKCRQDMSA-N/SDF?record_type=3d

> <SMILES>
OC[C@H]1O[C@H](C[C@@H]1O)N1C=C(I)C(=O)NC1=O

> <INCHI_IDENTIFIER>
InChI=1S/C9H11IN2O5/c10-4-2-12(9(16)11-8(4)15)7-1-5(14)6(3-13)17-7/h2,5-7,13-14H,1,3H2,(H,11,15,16)/t5-,6+,7+/m0/s1

> <INCHI_KEY>
XQFRJNBWHJMXHO-RRKCRQDMSA-N

> <FORMULA>
C9H11IN2O5

> <MOLECULAR_WEIGHT>
354.0985

> <EXACT_MASS>
353.971264892

> <JCHEM_ACCEPTOR_COUNT>
5

> <JCHEM_ATOM_COUNT>
28

> <JCHEM_AVERAGE_POLARIZABILITY>
26.170744978009015

> <JCHEM_BIOAVAILABILITY>
1

> <JCHEM_DONOR_COUNT>
3

> <JCHEM_FORMAL_CHARGE>
0

> <JCHEM_GHOSE_FILTER>
0

> <JCHEM_IUPAC>
1-[(2R,4S,5R)-4-hydroxy-5-(hydroxymethyl)oxolan-2-yl]-5-iodo-1,2,3,4-tetrahydropyrimidine-2,4-dione

> <ALOGPS_LOGP>
-0.70

> <JCHEM_LOGP>
-0.5289186266666662

> <ALOGPS_LOGS>
-1.18

> <JCHEM_MDDR_LIKE_RULE>
0

> <JCHEM_NUMBER_OF_RINGS>
2

> <JCHEM_PHYSIOLOGICAL_CHARGE>
0

> <JCHEM_PKA>
13.907879720516654

> <JCHEM_PKA_STRONGEST_ACIDIC>
8.456081807252897

> <JCHEM_PKA_STRONGEST_BASIC>
-2.978083591952415

> <JCHEM_POLAR_SURFACE_AREA>
99.09999999999998

> <JCHEM_REFRACTIVITY>
64.40390000000001

> <JCHEM_ROTATABLE_BOND_COUNT>
2

> <JCHEM_RULE_OF_FIVE>
1

> <ALOGPS_SOLUBILITY>
2.34e+01 g/l

> <JCHEM_TRADITIONAL_IUPAC>
idoxuridine

> <JCHEM_VEBER_RULE>
0

$$$$

  Mrv1909 11171900322D          

 34 37  0  0  0  0            999 V2000
    0.7144    0.6187    0.0000 C   0  0  2  0  0  0  0  0  0  0  0  0
   -0.7144    0.6187    0.0000 C   0  0  0  0  0  0  0  0  0  0  0  0
    0.7144   -0.2062    0.0000 C   0  0  2  0  0  0  0  0  0  0  0  0
    2.1433    0.6187    0.0000 C   0  0  0  0  0  0  0  0  0  0  0  0
    0.0000    1.0312    0.0000 C   0  0  0  0  0  0  0  0  0  0  0  0
    1.4289    1.0312    0.0000 C   0  0  0  0  0  0  0  0  0  0  0  0
    2.1433   -0.2062    0.0000 C   0  0  0  0  0  0  0  0  0  0  0  0
   -1.4289    1.0312    0.0000 C   0  0  0  0  0  0  0  0  0  0  0  0
   -0.7144   -0.2062    0.0000 C   0  0  2  0  0  0  0  0  0  0  0  0
    1.4289   -0.6187    0.0000 C   0  0  1  0  0  0  0  0  0  0  0  0
   -2.1434    0.6187    0.0000 C   0  0  0  0  0  0  0  0  0  0  0  0
    0.0000   -0.6187    0.0000 C   0  0  2  0  0  0  0  0  0  0  0  0
   -2.1434   -0.2062    0.0000 C   0  0  0  0  0  0  0  0  0  0  0  0
   -1.4289   -0.6187    0.0000 C   0  0  2  0  0  0  0  0  0  0  0  0
    2.8578    1.0312    0.0000 C   0  0  0  0  0  0  0  0  0  0  0  0
    1.4289   -1.4437    0.0000 N   0  0  0  0  0  0  0  0  0  0  0  0
    1.4289    1.8562    0.0000 O   0  0  0  0  0  0  0  0  0  0  0  0
   -1.4289    1.8562    0.0000 O   0  0  0  0  0  0  0  0  0  0  0  0
   -2.8578    1.0312    0.0000 C   0  0  0  0  0  0  0  0  0  0  0  0
    0.7144    1.4437    0.0000 O   0  0  0  0  0  0  0  0  0  0  0  0
    3.5723    0.6187    0.0000 N   0  0  0  0  0  0  0  0  0  0  0  0
    0.0000    1.8562    0.0000 O   0  0  0  0  0  0  0  0  0  0  0  0
    2.8578   -0.6187    0.0000 O   0  0  0  0  0  0  0  0  0  0  0  0
    0.0000   -1.4437    0.0000 O   0  0  0  0  0  0  0  0  0  0  0  0
    2.8578    1.8562    0.0000 O   0  0  0  0  0  0  0  0  0  0  0  0
   -2.8578   -0.6187    0.0000 C   0  0  0  0  0  0  0  0  0  0  0  0
   -1.4289   -1.4437    0.0000 C   0  0  0  0  0  0  0  0  0  0  0  0
   -2.8578    1.8562    0.0000 O   0  0  0  0  0  0  0  0  0  0  0  0
   -3.5723   -0.2062    0.0000 C   0  0  0  0  0  0  0  0  0  0  0  0
   -3.5723    0.6187    0.0000 C   0  0  0  0  0  0  0  0  0  0  0  0
    2.1433   -1.8562    0.0000 C   0  0  0  0  0  0  0  0  0  0  0  0
    0.7144   -1.8562    0.0000 C   0  0  0  0  0  0  0  0  0  0  0  0
   -0.7144   -1.0312    0.0000 H   0  0  0  0  0  0  0  0  0  0  0  0
    0.7144   -1.0312    0.0000 H   0  0  0  0  0  0  0  0  0  0  0  0
  3  1  1  0  0  0  0
  5  1  1  0  0  0  0
  6  1  1  0  0  0  0
  1 20  1  1  0  0  0
  5  2  2  0  0  0  0
  8  2  1  0  0  0  0
  9  2  1  0  0  0  0
 10  3  1  0  0  0  0
 12  3  1  0  0  0  0
  3 34  1  1  0  0  0
  6  4  1  0  0  0  0
  7  4  2  0  0  0  0
 15  4  1  0  0  0  0
 22  5  1  0  0  0  0
 17  6  2  0  0  0  0
 23  7  1  0  0  0  0
 10  7  1  0  0  0  0
 11  8  1  0  0  0  0
 18  8  2  0  0  0  0
 14  9  1  0  0  0  0
  9 33  1  1  0  0  0
 12  9  1  0  0  0  0
 10 16  1  1  0  0  0
 19 11  2  0  0  0  0
 13 11  1  0  0  0  0
 12 24  1  1  0  0  0
 14 13  1  0  0  0  0
 26 13  2  0  0  0  0
 14 27  1  1  0  0  0
 21 15  1  0  0  0  0
 25 15  2  0  0  0  0
 31 16  1  0  0  0  0
 32 16  1  0  0  0  0
 28 19  1  0  0  0  0
 30 19  1  0  0  0  0
 29 26  1  0  0  0  0
 30 29  2  0  0  0  0
M  END
> <DATABASE_ID>
DB00254

> <DATABASE_NAME>
drugbank

> <SMILES>
[H][C@@]12[C@@H](C)C3=CC=CC(O)=C3C(=O)C1=C(O)[C@]1(O)C(=O)C(C(N)=O)=C(O)[C@@H](N(C)C)[C@]1([H])[C@H]2O

> <INCHI_IDENTIFIER>
InChI=1S/C22H24N2O8/c1-7-8-5-4-6-9(25)11(8)16(26)12-10(7)17(27)14-15(24(2)3)18(28)13(21(23)31)20(30)22(14,32)19(12)29/h4-7,10,14-15,17,25,27-29,32H,1-3H3,(H2,23,31)/t7-,10+,14+,15-,17-,22-/m0/s1

> <INCHI_KEY>
JBIWCJUYHHGXTC-AKNGSSGZSA-N

> <FORMULA>
C22H24N2O8

> <MOLECULAR_WEIGHT>
444.4346

> <EXACT_MASS>
444.153265754

> <JCHEM_ACCEPTOR_COUNT>
9

> <JCHEM_ATOM_COUNT>
56

> <JCHEM_AVERAGE_POLARIZABILITY>
43.646934948494284

> <JCHEM_BIOAVAILABILITY>
1

> <JCHEM_DONOR_COUNT>
6

> <JCHEM_FORMAL_CHARGE>
0

> <JCHEM_GHOSE_FILTER>
0

> <JCHEM_IUPAC>
(4S,4aR,5S,5aR,6R,12aS)-4-(dimethylamino)-3,5,10,12,12a-pentahydroxy-6-methyl-1,11-dioxo-1,4,4a,5,5a,6,11,12a-octahydrotetracene-2-carboxamide

> <ALOGPS_LOGP>
-0.72

> <JCHEM_LOGP>
-3.337123924710148

> <ALOGPS_LOGS>
-2.85

> <JCHEM_MDDR_LIKE_RULE>
0

> <JCHEM_NUMBER_OF_RINGS>
4

> <JCHEM_PHYSIOLOGICAL_CHARGE>
0

> <JCHEM_PKA>
7.398375585243604

> <JCHEM_PKA_STRONGEST_ACIDIC>
3.2650498499118945

> <JCHEM_PKA_STRONGEST_BASIC>
8.330412805054982

> <JCHEM_POLAR_SURFACE_AREA>
181.61999999999998

> <JCHEM_REFRACTIVITY>
113.89189999999999

> <JCHEM_ROTATABLE_BOND_COUNT>
2

> <JCHEM_RULE_OF_FIVE>
0

> <ALOGPS_SOLUBILITY>
6.30e-01 g/l

> <JCHEM_TRADITIONAL_IUPAC>
cetrorelix

> <JCHEM_VEBER_RULE>
0

> <DRUGBANK_ID>
DB00254

> <SECONDARY_ACCESSION_NUMBERS>
APRD00597

> <DRUG_GROUPS>
approved; investigational; vet_approved

> <GENERIC_NAME>
Doxycycline

> <SYNONYMS>
5-hydroxy-α-6-deoxytetracycline; 6-alpha-deoxy-5-oxytetracycline; 6alpha-deoxy-5-oxytetracycline; 6α-deoxy-5-oxytetracycline; Anhydrous doxycycline; Doxiciclina; Doxycyclin; Doxycycline; Doxycycline (anhydrous); Doxycycline anhydrous; Doxycyclinum

> <PRODUCTS>
Acticlate; Acticlate CAP; Adoxa; Alodox; Alti-doxycycline - Tab 100mg; Alti-doxycycline-cap 100mg; Apo-doxy Cap 100mg; Apo-doxy Tabs 100mg; Apprilon; Atridox; BenoxylDoxy 30 Kit; BenoxylDoxy 60 Kit; BenzoDox 30 Kit; BenzoDox 60 Kit; Dom-doxycycline; Doryx; Doryx 100mg Cap; Doryx Mpc; Doxy 100; Doxy 100(tm) Doxycycline; Doxycin Cap 100mg; Doxycin Tab 100mg; Doxycyclate Hyclate; Doxycycline; Doxycycline Capsules; Doxycycline Hyclate; Doxycycline Hyclate Delayed release; Doxycycline Monohydrate; Doxycycline Tablets; Doxycycline hyclate; Doxycycline-100 Cap 100mg USP; Doxytab; LymePak; Mondoxyne; Mondoxyne NL; Mondoxyne NL 100mg; Monodox; Morgidox; NicAzel Doxy Kit; Ntp-doxycycline Capsules; Ntp-doxycycline Tablets; Nu-doxycycline Cap 100mg; Nu-doxycycline Tab 100mg; Ocudox; Okebo; Oracea; PHL-doxycycline; PMS-doxycycline; Penta-doxycycline Tablets; Periostat; Ratio-doxycycline; Rho-doxycin - Cap 100mg; Rho-doxycin Tabs - 100mg; Rho-doxycycline - Cap 100mg; Rho-doxycycline - Tab 100mg; Targadox; Teva-doxycycline; Vibra-Tabs; Vibramycin Calcium; Vibramycin Cap 100mg; Vibramycin Hyclate; Vibramycin Inj; Vibramycin Monohydrate

> <INTERNATIONAL_BRANDS>
Doxy; Doxycin; Doxylin; Jenacyclin; Microdox; NicAzelDoxyKit; Nu-Doxycycline; Supracyclin; Vibramycin

> <SALTS>
Doxycycline calcium; Doxycycline hyclate; Doxycycline hydrochloride; Doxycycline monohydrate

$$$$

  Mrv1909 11171900382D          

 45 48  0  0  0  0            999 V2000
   -6.3822   -0.4136    0.0000 C   0  0  0  0  0  0  0  0  0  0  0  0
   -6.3822    0.4113    0.0000 C   0  0  0  0  0  0  0  0  0  0  0  0
   -5.6677    0.8239    0.0000 C   0  0  0  0  0  0  0  0  0  0  0  0
   -4.9531    0.4113    0.0000 C   0  0  0  0  0  0  0  0  0  0  0  0
   -4.9531   -0.4136    0.0000 C   0  0  0  0  0  0  0  0  0  0  0  0
   -5.6677   -0.8262    0.0000 C   0  0  0  0  0  0  0  0  0  0  0  0
   -4.2386    0.8239    0.0000 C   0  0  0  0  0  0  0  0  0  0  0  0
   -3.5241    0.4113    0.0000 C   0  0  0  0  0  0  0  0  0  0  0  0
   -3.5241   -0.4136    0.0000 C   0  0  1  0  0  0  0  0  0  0  0  0
   -4.2386   -0.8262    0.0000 C   0  0  1  0  0  0  0  0  0  0  0  0
   -2.8095    0.8239    0.0000 C   0  0  0  0  0  0  0  0  0  0  0  0
   -2.0950    0.4113    0.0000 C   0  0  1  0  0  0  0  0  0  0  0  0
   -2.0950   -0.4136    0.0000 C   0  0  1  0  0  0  0  0  0  0  0  0
   -2.8095   -0.8262    0.0000 C   0  0  0  0  0  0  0  0  0  0  0  0
   -1.3805    0.8239    0.0000 C   0  0  0  0  0  0  0  0  0  0  0  0
   -0.6658    0.4113    0.0000 C   0  0  0  0  0  0  0  0  0  0  0  0
   -0.6658   -0.4136    0.0000 C   0  0  0  0  0  0  0  0  0  0  0  0
   -1.3805   -0.8262    0.0000 C   0  0  1  0  0  0  0  0  0  0  0  0
   -5.6677    1.6488    0.0000 O   0  0  0  0  0  0  0  0  0  0  0  0
   -4.2386    1.6489    0.0000 O   0  0  0  0  0  0  0  0  0  0  0  0
   -2.8095    1.6488    0.0000 O   0  0  0  0  0  0  0  0  0  0  0  0
   -1.3805    1.6489    0.0000 O   0  0  0  0  0  0  0  0  0  0  0  0
    0.0619   -0.8341    0.0000 O   0  0  0  0  0  0  0  0  0  0  0  0
    0.0619    0.8318    0.0000 C   0  0  0  0  0  0  0  0  0  0  0  0
    0.7735    0.4211    0.0000 N   0  0  0  0  0  0  0  0  0  0  0  0
    0.0617    1.6489    0.0000 O   0  0  0  0  0  0  0  0  0  0  0  0
    1.4695    0.8233    0.0000 C   0  0  0  0  0  0  0  0  0  0  0  0
    2.1736    0.4167    0.0000 N   0  0  0  0  0  0  0  0  0  0  0  0
    2.8735    0.8210    0.0000 C   0  0  0  0  0  0  0  0  0  0  0  0
    3.5756    0.4156    0.0000 C   0  0  0  0  0  0  0  0  0  0  0  0
    4.2764    0.8205    0.0000 C   0  0  0  0  0  0  0  0  0  0  0  0
    4.9781    0.4153    0.0000 C   0  0  0  0  0  0  0  0  0  0  0  0
    5.6791    0.8203    0.0000 C   0  0  2  0  0  0  0  0  0  0  0  0
    6.3807    0.4153    0.0000 N   0  0  0  0  0  0  0  0  0  0  0  0
    5.6791    1.6488    0.0000 C   0  0  0  0  0  0  0  0  0  0  0  0
    4.9532    2.0682    0.0000 O   0  0  0  0  0  0  0  0  0  0  0  0
    6.3822    2.0549    0.0000 O   0  0  0  0  0  0  0  0  0  0  0  0
   -4.2386   -1.6512    0.0000 C   0  0  0  0  0  0  0  0  0  0  0  0
   -4.9520   -1.2380    0.0000 O   0  0  0  0  0  0  0  0  0  0  0  0
   -3.5295   -1.2380    0.0000 H   0  0  0  0  0  0  0  0  0  0  0  0
   -2.0950   -1.2387    0.0000 H   0  0  0  0  0  0  0  0  0  0  0  0
   -1.3805   -1.6512    0.0000 N   0  0  0  0  0  0  0  0  0  0  0  0
   -2.1026   -2.0682    0.0000 C   0  0  0  0  0  0  0  0  0  0  0  0
   -0.6735   -2.0595    0.0000 C   0  0  0  0  0  0  0  0  0  0  0  0
   -2.0950    1.2364    0.0000 O   0  0  0  0  0  0  0  0  0  0  0  0
  1  2  2  0  0  0  0
  2  3  1  0  0  0  0
  3  4  2  0  0  0  0
  4  5  1  0  0  0  0
  5  6  2  0  0  0  0
  1  6  1  0  0  0  0
  4  7  1  0  0  0  0
  7  8  1  0  0  0  0
  8  9  1  0  0  0  0
  9 10  1  0  0  0  0
  5 10  1  0  0  0  0
  8 11  2  0  0  0  0
 11 12  1  0  0  0  0
 12 13  1  0  0  0  0
 13 14  1  0  0  0  0
  9 14  1  0  0  0  0
 12 15  1  0  0  0  0
 15 16  1  0  0  0  0
 16 17  2  0  0  0  0
 17 18  1  0  0  0  0
 13 18  1  0  0  0  0
  3 19  1  0  0  0  0
  7 20  2  0  0  0  0
 11 21  1  0  0  0  0
 15 22  2  0  0  0  0
 17 23  1  0  0  0  0
 16 24  1  0  0  0  0
 24 25  1  0  0  0  0
 24 26  2  0  0  0  0
 25 27  1  0  0  0  0
 27 28  1  0  0  0  0
 28 29  1  0  0  0  0
 29 30  1  0  0  0  0
 30 31  1  0  0  0  0
 31 32  1  0  0  0  0
 32 33  1  0  0  0  0
 33 34  1  0  0  0  0
 33 35  1  1  0  0  0
 35 36  2  0  0  0  0
 35 37  1  0  0  0  0
 10 38  1  1  0  0  0
 10 39  1  6  0  0  0
  9 40  1  1  0  0  0
 13 41  1  1  0  0  0
 18 42  1  1  0  0  0
 42 43  1  0  0  0  0
 42 44  1  0  0  0  0
 12 45  1  1  0  0  0
M  END
> <DATABASE_ID>
DB00256

> <DATABASE_NAME>
drugbank

> <SMILES>
[H][C@@]12C[C@@]3([H])C(C(=O)C4=C(O)C=CC=C4[C@@]3(C)O)=C(O)[C@]1(O)C(=O)C(C(=O)NCNCCCC[C@H](N)C(O)=O)=C(O)[C@H]2N(C)C

> <INCHI_IDENTIFIER>
InChI=1S/C29H38N4O10/c1-28(42)13-7-6-9-17(34)18(13)22(35)19-14(28)11-15-21(33(2)3)23(36)20(25(38)29(15,43)24(19)37)26(39)32-12-31-10-5-4-8-16(30)27(40)41/h6-7,9,14-16,21,31,34,36-37,42-43H,4-5,8,10-12,30H2,1-3H3,(H,32,39)(H,40,41)/t14-,15-,16-,21-,28+,29-/m0/s1

> <INCHI_KEY>
AHEVKYYGXVEWNO-UEPZRUIBSA-N

> <FORMULA>
C29H38N4O10

> <MOLECULAR_WEIGHT>
602.6328

> <EXACT_MASS>
602.258793456

> <JCHEM_ACCEPTOR_COUNT>
13

> <JCHEM_ATOM_COUNT>
81

> <JCHEM_AVERAGE_POLARIZABILITY>
62.48271132033949

> <JCHEM_BIOAVAILABILITY>
0

> <JCHEM_DONOR_COUNT>
9

> <JCHEM_FORMAL_CHARGE>
0

> <JCHEM_GHOSE_FILTER>
0

> <JCHEM_IUPAC>
(2S)-6-[({[(4S,4aS,5aS,6S,12aS)-4-(dimethylamino)-3,6,10,12,12a-pentahydroxy-6-methyl-1,11-dioxo-1,4,4a,5,5a,6,11,12a-octahydrotetracen-2-yl]formamido}methyl)amino]-2-aminohexanoic acid

> <ALOGPS_LOGP>
-0.27

> <JCHEM_LOGP>
-7.065616824824305

> <ALOGPS_LOGS>
-2.66

> <JCHEM_MDDR_LIKE_RULE>
1

> <JCHEM_NUMBER_OF_RINGS>
4

> <JCHEM_PHYSIOLOGICAL_CHARGE>
1

> <JCHEM_PKA>
3.4141432966477483

> <JCHEM_PKA_STRONGEST_ACIDIC>
2.5140057550136685

> <JCHEM_PKA_STRONGEST_BASIC>
9.77069618892244

> <JCHEM_POLAR_SURFACE_AREA>
242.98

> <JCHEM_REFRACTIVITY>
154.50959999999998

> <JCHEM_ROTATABLE_BOND_COUNT>
10

> <JCHEM_RULE_OF_FIVE>
0

> <ALOGPS_SOLUBILITY>
1.31e+00 g/l

> <JCHEM_TRADITIONAL_IUPAC>
cetrorelix

> <JCHEM_VEBER_RULE>
0

> <DRUGBANK_ID>
DB00256

> <SECONDARY_ACCESSION_NUMBERS>
APRD00565; EXPT01049

> <DRUG_GROUPS>
approved; investigational

> <GENERIC_NAME>
Lymecycline

> <SYNONYMS>
(+)-N-(5-Amino-5-carboxypentylaminomethyl)-4-dimethylamino-1,4,4a,5,5a,6,11,12a-octahydro-3,6,10,12,12a-pentahydroxy-6-methyl-1,11-dioxonaphthacene-2-carboxamide; Limeciclina; Lymecycline; Lymecyclinum; N-Lysinomethyltetracycline; N2-(((+)-5-Amino-5-carboxypentylamino)methyl)tetracycline; N6-((4-(Dimethylamino)-1,4,4a,5,5a,6,11,12a-octahydro-3,6,10,12,12a-pentahydroxy-6-methyl-1,11-dioxo-2-naphthacenecarboxamido)methyl)lysine; Tetracycline-L-methylene lysine; Tetracycline-L-methylenelysine

> <INTERNATIONAL_BRANDS>
Eficiclina; Tetralisal; Tetralysal

$$$$
5344
  -OEChem-10051719113D

 31 32  0     0  0  0  0  0  0999 V2000
    0.3220    1.1320   -0.3603 S   0  0  0  0  0  0  0  0  0  0  0  0
   -2.6489    1.1014    0.3719 O   0  0  0  0  0  0  0  0  0  0  0  0
    0.2935    1.7216   -1.6936 O   0  0  0  0  0  0  0  0  0  0  0  0
   -0.0019    1.9723    0.7862 O   0  0  0  0  0  0  0  0  0  0  0  0
   -0.7014   -0.2540   -0.3665 N   0  0  0  0  0  0  0  0  0  0  0  0
   -4.0139    0.9303    0.5675 N   0  0  0  0  0  0  0  0  0  0  0  0
    5.7212   -1.2182    0.4665 N   0  0  0  0  0  0  0  0  0  0  0  0
    1.9072    0.4418   -0.1174 C   0  0  0  0  0  0  0  0  0  0  0  0
   -2.0951   -0.0680   -0.0642 C   0  0  0  0  0  0  0  0  0  0  0  0
   -3.0876   -1.0190   -0.1599 C   0  0  0  0  0  0  0  0  0  0  0  0
   -4.2525   -0.3437    0.2434 C   0  0  0  0  0  0  0  0  0  0  0  0
    2.6807    0.0677   -1.2163 C   0  0  0  0  0  0  0  0  0  0  0  0
    2.4002    0.2642    1.1754 C   0  0  0  0  0  0  0  0  0  0  0  0
   -2.9543   -2.4220   -0.5874 C   0  0  0  0  0  0  0  0  0  0  0  0
    3.9471   -0.4840   -1.0224 C   0  0  0  0  0  0  0  0  0  0  0  0
    3.6667   -0.2873    1.3691 C   0  0  0  0  0  0  0  0  0  0  0  0
    4.4401   -0.6615    0.2702 C   0  0  0  0  0  0  0  0  0  0  0  0
   -5.6230   -0.8738    0.3375 C   0  0  0  0  0  0  0  0  0  0  0  0
   -0.3186   -1.2064   -0.3519 H   0  0  0  0  0  0  0  0  0  0  0  0
    2.3146    0.1898   -2.2318 H   0  0  0  0  0  0  0  0  0  0  0  0
    1.8115    0.5427    2.0449 H   0  0  0  0  0  0  0  0  0  0  0  0
   -2.3592   -2.4961   -1.5036 H   0  0  0  0  0  0  0  0  0  0  0  0
   -2.4597   -3.0126    0.1905 H   0  0  0  0  0  0  0  0  0  0  0  0
   -3.9272   -2.8802   -0.7904 H   0  0  0  0  0  0  0  0  0  0  0  0
    4.5396   -0.7730   -1.8867 H   0  0  0  0  0  0  0  0  0  0  0  0
    4.0393   -0.4218    2.3814 H   0  0  0  0  0  0  0  0  0  0  0  0
   -5.6505   -1.7603    0.9795 H   0  0  0  0  0  0  0  0  0  0  0  0
   -6.3175   -0.1383    0.7572 H   0  0  0  0  0  0  0  0  0  0  0  0
   -5.9938   -1.1562   -0.6532 H   0  0  0  0  0  0  0  0  0  0  0  0
    6.2817   -1.4913   -0.3297 H   0  0  0  0  0  0  0  0  0  0  0  0
    6.0783   -1.3486    1.4036 H   0  0  0  0  0  0  0  0  0  0  0  0
  1  3  2  0  0  0  0
  1  4  2  0  0  0  0
  1  5  1  0  0  0  0
  1  8  1  0  0  0  0
  2  6  1  0  0  0  0
  2  9  1  0  0  0  0
  5  9  1  0  0  0  0
  5 19  1  0  0  0  0
  6 11  2  0  0  0  0
  7 17  1  0  0  0  0
  7 30  1  0  0  0  0
  7 31  1  0  0  0  0
  8 12  2  0  0  0  0
  8 13  1  0  0  0  0
  9 10  2  0  0  0  0
 10 11  1  0  0  0  0
 10 14  1  0  0  0  0
 11 18  1  0  0  0  0
 12 15  1  0  0  0  0
 12 20  1  0  0  0  0
 13 16  2  0  0  0  0
 13 21  1  0  0  0  0
 14 22  1  0  0  0  0
 14 23  1  0  0  0  0
 14 24  1  0  0  0  0
 15 17  2  0  0  0  0
 15 25  1  0  0  0  0
 16 17  1  0  0  0  0
 16 26  1  0  0  0  0
 18 27  1  0  0  0  0
 18 28  1  0  0  0  0
 18 29  1  0  0  0  0
M  END
> <DATABASE_ID>
DB00263

> <DATABASE_NAME>
drugbank

> <ORIGINAL_SOURCE>
PUBCHEM

> <ORIGINAL_SOURCE_URL>
https://pubchem.ncbi.nlm.nih.gov/rest/pug/compound/inchikey/NHUHCSRWZMLRLA-UHFFFAOYSA-N/SDF?record_type=3d

> <SMILES>
CC1=NOC(NS(=O)(=O)C2=CC=C(N)C=C2)=C1C

> <INCHI_IDENTIFIER>
InChI=1S/C11H13N3O3S/c1-7-8(2)13-17-11(7)14-18(15,16)10-5-3-9(12)4-6-10/h3-6,14H,12H2,1-2H3

> <INCHI_KEY>
NHUHCSRWZMLRLA-UHFFFAOYSA-N

> <FORMULA>
C11H13N3O3S

> <MOLECULAR_WEIGHT>
267.304

> <EXACT_MASS>
267.067761987

> <JCHEM_ACCEPTOR_COUNT>
4

> <JCHEM_AVERAGE_POLARIZABILITY>
26.92608944822496

> <JCHEM_BIOAVAILABILITY>
1

> <JCHEM_DONOR_COUNT>
2

> <JCHEM_FORMAL_CHARGE>
0

> <JCHEM_GHOSE_FILTER>
1

> <JCHEM_IUPAC>
4-amino-N-(dimethyl-1,2-oxazol-5-yl)benzene-1-sulfonamide

> <ALOGPS_LOGP>
1.14

> <JCHEM_LOGP>
0.7306131126666664

> <ALOGPS_LOGS>
-2.93

> <JCHEM_MDDR_LIKE_RULE>
0

> <JCHEM_NUMBER_OF_RINGS>
2

> <JCHEM_PHYSIOLOGICAL_CHARGE>
-1

> <JCHEM_PKA_STRONGEST_ACIDIC>
5.804935006005729

> <JCHEM_PKA_STRONGEST_BASIC>
2.1668008239015366

> <JCHEM_POLAR_SURFACE_AREA>
98.22

> <JCHEM_REFRACTIVITY>
67.91860000000001

> <JCHEM_ROTATABLE_BOND_COUNT>
2

> <JCHEM_RULE_OF_FIVE>
1

> <ALOGPS_SOLUBILITY>
3.13e-01 g/l

> <JCHEM_TRADITIONAL_IUPAC>
ganda

> <JCHEM_VEBER_RULE>
0

$$$$
21319
  -OEChem-02062017453D

 47 50  0     1  0  0  0  0  0999 V2000
    2.3995   -1.2986    2.7486 Cl  0  0  0  0  0  0  0  0  0  0  0  0
   -1.3227    0.8798   -1.6011 S   0  0  0  0  0  0  0  0  0  0  0  0
    1.7465   -1.4785   -2.3245 F   0  0  0  0  0  0  0  0  0  0  0  0
   -1.7511    0.3290    2.7492 O   0  0  0  0  0  0  0  0  0  0  0  0
   -5.3699   -1.0317   -0.0297 O   0  0  0  0  0  0  0  0  0  0  0  0
   -5.1745    0.9172    1.1363 O   0  0  0  0  0  0  0  0  0  0  0  0
    1.4980    2.8665   -0.5440 O   0  0  0  0  0  0  0  0  0  0  0  0
    4.9816    0.4941   -0.4023 O   0  0  0  0  0  0  0  0  0  0  0  0
   -2.5674    1.0796    0.6658 N   0  0  0  0  0  0  0  0  0  0  0  0
    0.6071    1.1921    0.7664 N   0  0  0  0  0  0  0  0  0  0  0  0
    4.3139   -0.7181   -0.2768 N   0  0  0  0  0  0  0  0  0  0  0  0
   -1.6820    1.9239   -0.1417 C   0  0  1  0  0  0  0  0  0  0  0  0
   -2.9986    0.0752   -1.4863 C   0  0  0  0  0  0  0  0  0  0  0  0
   -3.2481   -0.0321    0.0335 C   0  0  2  0  0  0  0  0  0  0  0  0
   -0.6759    1.8640    1.0158 C   0  0  1  0  0  0  0  0  0  0  0  0
   -1.7179    0.9799    1.7296 C   0  0  0  0  0  0  0  0  0  0  0  0
   -4.0012    0.9638   -2.2351 C   0  0  0  0  0  0  0  0  0  0  0  0
   -2.9328   -1.3064   -2.1398 C   0  0  0  0  0  0  0  0  0  0  0  0
   -4.6823    0.0323    0.4521 C   0  0  0  0  0  0  0  0  0  0  0  0
    1.6198    1.7621   -0.0149 C   0  0  0  0  0  0  0  0  0  0  0  0
    2.8570    0.9810   -0.1469 C   0  0  0  0  0  0  0  0  0  0  0  0
    3.0279   -0.3901   -0.1233 C   0  0  0  0  0  0  0  0  0  0  0  0
    4.0849    1.5101   -0.3213 C   0  0  0  0  0  0  0  0  0  0  0  0
    2.0310   -1.4162    0.0376 C   0  0  0  0  0  0  0  0  0  0  0  0
    4.6309    2.8694   -0.4363 C   0  0  0  0  0  0  0  0  0  0  0  0
    1.6737   -1.8980    1.2972 C   0  0  0  0  0  0  0  0  0  0  0  0
    1.4167   -1.9292   -1.1049 C   0  0  0  0  0  0  0  0  0  0  0  0
    0.7023   -2.8924    1.4138 C   0  0  0  0  0  0  0  0  0  0  0  0
    0.4455   -2.9237   -0.9881 C   0  0  0  0  0  0  0  0  0  0  0  0
    0.0884   -3.4053    0.2712 C   0  0  0  0  0  0  0  0  0  0  0  0
   -2.1106    2.9076   -0.3539 H   0  0  0  0  0  0  0  0  0  0  0  0
   -2.8186   -0.9529    0.4508 H   0  0  0  0  0  0  0  0  0  0  0  0
   -0.5304    2.8222    1.5290 H   0  0  0  0  0  0  0  0  0  0  0  0
   -4.1039    1.9528   -1.7743 H   0  0  0  0  0  0  0  0  0  0  0  0
   -3.7029    1.1105   -3.2802 H   0  0  0  0  0  0  0  0  0  0  0  0
   -4.9977    0.5088   -2.2547 H   0  0  0  0  0  0  0  0  0  0  0  0
   -2.6295   -1.2413   -3.1913 H   0  0  0  0  0  0  0  0  0  0  0  0
   -2.2279   -1.9667   -1.6265 H   0  0  0  0  0  0  0  0  0  0  0  0
   -3.9107   -1.7995   -2.1171 H   0  0  0  0  0  0  0  0  0  0  0  0
    0.8020    0.3381    1.2727 H   0  0  0  0  0  0  0  0  0  0  0  0
   -6.3145   -1.0074    0.2337 H   0  0  0  0  0  0  0  0  0  0  0  0
    5.7234    2.8691   -0.3689 H   0  0  0  0  0  0  0  0  0  0  0  0
    4.3517    3.3139   -1.3966 H   0  0  0  0  0  0  0  0  0  0  0  0
    4.2479    3.5103    0.3640 H   0  0  0  0  0  0  0  0  0  0  0  0
    0.4108   -3.2779    2.3875 H   0  0  0  0  0  0  0  0  0  0  0  0
   -0.0307   -3.3239   -1.8782 H   0  0  0  0  0  0  0  0  0  0  0  0
   -0.6687   -4.1786    0.3617 H   0  0  0  0  0  0  0  0  0  0  0  0
  1 26  1  0  0  0  0
  2 12  1  0  0  0  0
  2 13  1  0  0  0  0
  3 27  1  0  0  0  0
  4 16  2  0  0  0  0
  5 19  1  0  0  0  0
  5 41  1  0  0  0  0
  6 19  2  0  0  0  0
  7 20  2  0  0  0  0
  8 11  1  0  0  0  0
  8 23  1  0  0  0  0
  9 12  1  0  0  0  0
  9 14  1  0  0  0  0
  9 16  1  0  0  0  0
 10 15  1  0  0  0  0
 10 20  1  0  0  0  0
 10 40  1  0  0  0  0
 11 22  2  0  0  0  0
 12 15  1  0  0  0  0
 12 31  1  0  0  0  0
 13 14  1  0  0  0  0
 13 17  1  0  0  0  0
 13 18  1  0  0  0  0
 14 19  1  0  0  0  0
 14 32  1  0  0  0  0
 15 16  1  0  0  0  0
 15 33  1  0  0  0  0
 17 34  1  0  0  0  0
 17 35  1  0  0  0  0
 17 36  1  0  0  0  0
 18 37  1  0  0  0  0
 18 38  1  0  0  0  0
 18 39  1  0  0  0  0
 20 21  1  0  0  0  0
 21 22  1  0  0  0  0
 21 23  2  0  0  0  0
 22 24  1  0  0  0  0
 23 25  1  0  0  0  0
 24 26  1  0  0  0  0
 24 27  2  0  0  0  0
 25 42  1  0  0  0  0
 25 43  1  0  0  0  0
 25 44  1  0  0  0  0
 26 28  2  0  0  0  0
 27 29  1  0  0  0  0
 28 30  1  0  0  0  0
 28 45  1  0  0  0  0
 29 30  2  0  0  0  0
 29 46  1  0  0  0  0
 30 47  1  0  0  0  0
M  END
> <DATABASE_ID>
DB00301

> <DATABASE_NAME>
drugbank

> <ORIGINAL_SOURCE>
PUBCHEM

> <ORIGINAL_SOURCE_URL>
https://pubchem.ncbi.nlm.nih.gov/rest/pug/compound/inchikey/UIOFUWFRIANQPC-JKIFEVAISA-N/SDF?record_type=3d

> <SMILES>
[H][C@]12SC(C)(C)[C@@H](N1C(=O)[C@H]2NC(=O)C1=C(C)ON=C1C1=C(Cl)C=CC=C1F)C(O)=O

> <INCHI_IDENTIFIER>
InChI=1S/C19H17ClFN3O5S/c1-7-10(12(23-29-7)11-8(20)5-4-6-9(11)21)15(25)22-13-16(26)24-14(18(27)28)19(2,3)30-17(13)24/h4-6,13-14,17H,1-3H3,(H,22,25)(H,27,28)/t13-,14+,17-/m1/s1

> <INCHI_KEY>
UIOFUWFRIANQPC-JKIFEVAISA-N

> <FORMULA>
C19H17ClFN3O5S

> <MOLECULAR_WEIGHT>
453.872

> <EXACT_MASS>
453.056147271

> <JCHEM_ACCEPTOR_COUNT>
5

> <JCHEM_ATOM_COUNT>
47

> <JCHEM_AVERAGE_NEUTRAL_MICROSPECIES_CHARGE>
-0.9994415917645392

> <JCHEM_AVERAGE_POLARIZABILITY>
41.690961989530194

> <JCHEM_BIOAVAILABILITY>
1

> <JCHEM_DONOR_COUNT>
2

> <JCHEM_FORMAL_CHARGE>
0

> <JCHEM_GHOSE_FILTER>
1

> <JCHEM_IUPAC>
(2S,5R,6R)-6-[3-(2-chloro-6-fluorophenyl)-5-methyl-1,2-oxazole-4-amido]-3,3-dimethyl-7-oxo-4-thia-1-azabicyclo[3.2.0]heptane-2-carboxylic acid

> <ALOGPS_LOGP>
2.69

> <JCHEM_LOGP>
2.444441594666667

> <ALOGPS_LOGS>
-3.92

> <JCHEM_MDDR_LIKE_RULE>
0

> <JCHEM_NEUTRAL_CHARGE>
-1

> <JCHEM_NUMBER_OF_RINGS>
4

> <JCHEM_PHYSIOLOGICAL_CHARGE>
-1

> <JCHEM_PKA>
13.638424587889926

> <JCHEM_PKA_STRONGEST_ACIDIC>
3.747546333668006

> <JCHEM_PKA_STRONGEST_BASIC>
-0.9294601599604333

> <JCHEM_POLAR_SURFACE_AREA>
112.74

> <JCHEM_REFRACTIVITY>
106.85350000000001

> <JCHEM_ROTATABLE_BOND_COUNT>
3

> <JCHEM_RULE_OF_FIVE>
1

> <ALOGPS_SOLUBILITY>
5.45e-02 g/l

> <JCHEM_TRADITIONAL_IUPAC>
cefazolin sodium

> <JCHEM_VEBER_RULE>
0

$$$$
43672
  -OEChem-10051719123D

 63 66  0     1  0  0  0  0  0999 V2000
   -3.4365   -0.4241   -1.2130 S   0  0  0  0  0  0  0  0  0  0  0  0
   -3.9227    2.3296    2.1918 O   0  0  0  0  0  0  0  0  0  0  0  0
   -7.7231    0.5873    0.9740 O   0  0  0  0  0  0  0  0  0  0  0  0
   -7.1242    2.2062   -0.5147 O   0  0  0  0  0  0  0  0  0  0  0  0
   -0.0858    1.0010   -1.2188 O   0  0  0  0  0  0  0  0  0  0  0  0
    2.8090   -0.6899    2.3564 O   0  0  0  0  0  0  0  0  0  0  0  0
    3.7074    0.7396   -1.5127 O   0  0  0  0  0  0  0  0  0  0  0  0
    6.2015    0.5452   -2.2873 O   0  0  0  0  0  0  0  0  0  0  0  0
   -4.5112    1.5817    0.0320 N   0  0  0  0  0  0  0  0  0  0  0  0
   -1.4387    0.9922    0.6641 N   0  0  0  0  0  0  0  0  0  0  0  0
    1.9311   -0.1236    0.3070 N   0  0  0  0  0  0  0  0  0  0  0  0
    4.2728   -0.0111    0.6545 N   0  0  0  0  0  0  0  0  0  0  0  0
    6.9155    0.7194   -0.0726 N   0  0  0  0  0  0  0  0  0  0  0  0
   -3.4256    1.3843   -0.9333 C   0  0  1  0  0  0  0  0  0  0  0  0
   -5.2761   -0.4957   -0.9301 C   0  0  0  0  0  0  0  0  0  0  0  0
   -5.5147    0.5475    0.1827 C   0  0  2  0  0  0  0  0  0  0  0  0
   -2.4631    1.9122    0.1394 C   0  0  1  0  0  0  0  0  0  0  0  0
   -3.7117    2.0542    1.0324 C   0  0  0  0  0  0  0  0  0  0  0  0
   -5.6533   -1.9035   -0.4650 C   0  0  0  0  0  0  0  0  0  0  0  0
   -5.9711   -0.1777   -2.2609 C   0  0  0  0  0  0  0  0  0  0  0  0
   -6.8499    1.2202    0.1529 C   0  0  0  0  0  0  0  0  0  0  0  0
   -0.3246    0.6144   -0.0762 C   0  0  0  0  0  0  0  0  0  0  0  0
    0.5559   -0.3816    0.6674 C   0  0  1  0  0  0  0  0  0  0  0  0
    0.1558   -1.8096    0.3789 C   0  0  0  0  0  0  0  0  0  0  0  0
    2.9843   -0.3003    1.1981 C   0  0  0  0  0  0  0  0  0  0  0  0
   -0.7921   -2.4441    1.1818 C   0  0  0  0  0  0  0  0  0  0  0  0
    0.7339   -2.4936   -0.6907 C   0  0  0  0  0  0  0  0  0  0  0  0
    5.4186   -0.3283    1.5043 C   0  0  0  0  0  0  0  0  0  0  0  0
    6.5119    0.7006    1.3194 C   0  0  0  0  0  0  0  0  0  0  0  0
    4.5336    0.4358   -0.6583 C   0  0  0  0  0  0  0  0  0  0  0  0
   -1.1619   -3.7624    0.9155 C   0  0  0  0  0  0  0  0  0  0  0  0
    0.3640   -3.8119   -0.9570 C   0  0  0  0  0  0  0  0  0  0  0  0
    5.9789    0.5656   -1.0819 C   0  0  0  0  0  0  0  0  0  0  0  0
    8.3119    0.9894   -0.3717 C   0  0  0  0  0  0  0  0  0  0  0  0
   -0.5839   -4.4462   -0.1539 C   0  0  0  0  0  0  0  0  0  0  0  0
    8.5839    2.4772   -0.4546 C   0  0  0  0  0  0  0  0  0  0  0  0
   -3.5342    2.0050   -1.8273 H   0  0  0  0  0  0  0  0  0  0  0  0
   -5.3649    0.1087    1.1788 H   0  0  0  0  0  0  0  0  0  0  0  0
   -2.0247    2.8880   -0.1042 H   0  0  0  0  0  0  0  0  0  0  0  0
   -6.7281   -1.9678   -0.2602 H   0  0  0  0  0  0  0  0  0  0  0  0
   -5.1286   -2.1835    0.4558 H   0  0  0  0  0  0  0  0  0  0  0  0
   -5.4197   -2.6568   -1.2263 H   0  0  0  0  0  0  0  0  0  0  0  0
   -5.7394    0.8304   -2.6222 H   0  0  0  0  0  0  0  0  0  0  0  0
   -7.0604   -0.2480   -2.1605 H   0  0  0  0  0  0  0  0  0  0  0  0
   -5.6800   -0.8878   -3.0442 H   0  0  0  0  0  0  0  0  0  0  0  0
   -1.5487    0.6063    1.5989 H   0  0  0  0  0  0  0  0  0  0  0  0
    0.4665   -0.1989    1.7460 H   0  0  0  0  0  0  0  0  0  0  0  0
   -8.6063    1.0141    0.9685 H   0  0  0  0  0  0  0  0  0  0  0  0
    2.1244    0.1752   -0.6425 H   0  0  0  0  0  0  0  0  0  0  0  0
   -1.2511   -1.9226    2.0174 H   0  0  0  0  0  0  0  0  0  0  0  0
    1.4632   -2.0230   -1.3439 H   0  0  0  0  0  0  0  0  0  0  0  0
    5.1273   -0.3703    2.5584 H   0  0  0  0  0  0  0  0  0  0  0  0
    5.7687   -1.3266    1.2137 H   0  0  0  0  0  0  0  0  0  0  0  0
    6.1644    1.7062    1.5821 H   0  0  0  0  0  0  0  0  0  0  0  0
    7.3683    0.4475    1.9527 H   0  0  0  0  0  0  0  0  0  0  0  0
   -1.9009   -4.2558    1.5399 H   0  0  0  0  0  0  0  0  0  0  0  0
    0.8111   -4.3436   -1.7920 H   0  0  0  0  0  0  0  0  0  0  0  0
    8.5584    0.5331   -1.3372 H   0  0  0  0  0  0  0  0  0  0  0  0
    8.9464    0.5142    0.3839 H   0  0  0  0  0  0  0  0  0  0  0  0
   -0.8728   -5.4722   -0.3621 H   0  0  0  0  0  0  0  0  0  0  0  0
    9.6349    2.6602   -0.6982 H   0  0  0  0  0  0  0  0  0  0  0  0
    8.3632    2.9719    0.4970 H   0  0  0  0  0  0  0  0  0  0  0  0
    7.9669    2.9497   -1.2262 H   0  0  0  0  0  0  0  0  0  0  0  0
  1 14  1  0  0  0  0
  1 15  1  0  0  0  0
  2 18  2  0  0  0  0
  3 21  1  0  0  0  0
  3 48  1  0  0  0  0
  4 21  2  0  0  0  0
  5 22  2  0  0  0  0
  6 25  2  0  0  0  0
  7 30  2  0  0  0  0
  8 33  2  0  0  0  0
  9 14  1  0  0  0  0
  9 16  1  0  0  0  0
  9 18  1  0  0  0  0
 10 17  1  0  0  0  0
 10 22  1  0  0  0  0
 10 46  1  0  0  0  0
 11 23  1  0  0  0  0
 11 25  1  0  0  0  0
 11 49  1  0  0  0  0
 12 25  1  0  0  0  0
 12 28  1  0  0  0  0
 12 30  1  0  0  0  0
 13 29  1  0  0  0  0
 13 33  1  0  0  0  0
 13 34  1  0  0  0  0
 14 17  1  0  0  0  0
 14 37  1  0  0  0  0
 15 16  1  0  0  0  0
 15 19  1  0  0  0  0
 15 20  1  0  0  0  0
 16 21  1  0  0  0  0
 16 38  1  0  0  0  0
 17 18  1  0  0  0  0
 17 39  1  0  0  0  0
 19 40  1  0  0  0  0
 19 41  1  0  0  0  0
 19 42  1  0  0  0  0
 20 43  1  0  0  0  0
 20 44  1  0  0  0  0
 20 45  1  0  0  0  0
 22 23  1  0  0  0  0
 23 24  1  0  0  0  0
 23 47  1  0  0  0  0
 24 26  2  0  0  0  0
 24 27  1  0  0  0  0
 26 31  1  0  0  0  0
 26 50  1  0  0  0  0
 27 32  2  0  0  0  0
 27 51  1  0  0  0  0
 28 29  1  0  0  0  0
 28 52  1  0  0  0  0
 28 53  1  0  0  0  0
 29 54  1  0  0  0  0
 29 55  1  0  0  0  0
 30 33  1  0  0  0  0
 31 35  2  0  0  0  0
 31 56  1  0  0  0  0
 32 35  1  0  0  0  0
 32 57  1  0  0  0  0
 34 36  1  0  0  0  0
 34 58  1  0  0  0  0
 34 59  1  0  0  0  0
 35 60  1  0  0  0  0
 36 61  1  0  0  0  0
 36 62  1  0  0  0  0
 36 63  1  0  0  0  0
M  END
> <DATABASE_ID>
DB00319

> <DATABASE_NAME>
drugbank

> <ORIGINAL_SOURCE>
PUBCHEM

> <ORIGINAL_SOURCE_URL>
https://pubchem.ncbi.nlm.nih.gov/rest/pug/compound/inchikey/IVBHGBMCVLDMKU-GXNBUGAJSA-N/SDF?record_type=3d

> <SMILES>
[H][C@]12SC(C)(C)[C@@H](N1C(=O)[C@H]2NC(=O)[C@H](NC(=O)N1CCN(CC)C(=O)C1=O)C1=CC=CC=C1)C(O)=O

> <INCHI_IDENTIFIER>
InChI=1S/C23H27N5O7S/c1-4-26-10-11-27(19(32)18(26)31)22(35)25-13(12-8-6-5-7-9-12)16(29)24-14-17(30)28-15(21(33)34)23(2,3)36-20(14)28/h5-9,13-15,20H,4,10-11H2,1-3H3,(H,24,29)(H,25,35)(H,33,34)/t13-,14-,15+,20-/m1/s1

> <INCHI_KEY>
IVBHGBMCVLDMKU-GXNBUGAJSA-N

> <FORMULA>
C23H27N5O7S

> <MOLECULAR_WEIGHT>
517.555

> <EXACT_MASS>
517.163118933

> <JCHEM_ACCEPTOR_COUNT>
7

> <JCHEM_AVERAGE_POLARIZABILITY>
51.770624623707036

> <JCHEM_BIOAVAILABILITY>
1

> <JCHEM_DONOR_COUNT>
3

> <JCHEM_FORMAL_CHARGE>
0

> <JCHEM_GHOSE_FILTER>
0

> <JCHEM_IUPAC>
(2S,5R,6R)-6-[(2R)-2-[(4-ethyl-2,3-dioxopiperazine-1-carbonyl)amino]-2-phenylacetamido]-3,3-dimethyl-7-oxo-4-thia-1-azabicyclo[3.2.0]heptane-2-carboxylic acid

> <ALOGPS_LOGP>
0.67

> <JCHEM_LOGP>
-0.2584901896666671

> <ALOGPS_LOGS>
-3.64

> <JCHEM_MDDR_LIKE_RULE>
1

> <JCHEM_NUMBER_OF_RINGS>
4

> <JCHEM_PHYSIOLOGICAL_CHARGE>
-1

> <JCHEM_PKA>
11.595441870353845

> <JCHEM_PKA_STRONGEST_ACIDIC>
3.4850654965939314

> <JCHEM_PKA_STRONGEST_BASIC>
-4.256401656507363

> <JCHEM_POLAR_SURFACE_AREA>
156.42999999999998

> <JCHEM_REFRACTIVITY>
126.29669999999999

> <JCHEM_ROTATABLE_BOND_COUNT>
6

> <JCHEM_RULE_OF_FIVE>
0

> <ALOGPS_SOLUBILITY>
1.19e-01 g/l

> <JCHEM_TRADITIONAL_IUPAC>
piperacillin

> <JCHEM_VEBER_RULE>
0

$$$$
72474
  -OEChem-10051719133D

 48 51  0     1  0  0  0  0  0999 V2000
    2.0618   -2.5049    0.5781 F   0  0  0  0  0  0  0  0  0  0  0  0
   -3.0074   -2.4031    0.2757 O   0  0  0  0  0  0  0  0  0  0  0  0
   -5.3038   -1.6262   -0.6386 O   0  0  0  0  0  0  0  0  0  0  0  0
   -5.8652    0.4587    0.1154 O   0  0  0  0  0  0  0  0  0  0  0  0
   -1.7898    1.4377   -0.3405 N   0  0  0  0  0  0  0  0  0  0  0  0
    2.8956    0.0938    0.1605 N   0  0  1  0  0  0  0  0  0  0  0  0
    5.6345    0.8670   -0.0272 N   0  0  0  0  0  0  0  0  0  0  0  0
   -1.4435    2.8569   -0.5722 C   0  0  0  0  0  0  0  0  0  0  0  0
   -2.0502    3.9375    0.2599 C   0  0  0  0  0  0  0  0  0  0  0  0
   -0.5934    3.6056    0.4000 C   0  0  0  0  0  0  0  0  0  0  0  0
   -0.7883    0.4522   -0.1092 C   0  0  0  0  0  0  0  0  0  0  0  0
   -3.1209    1.0685   -0.3493 C   0  0  0  0  0  0  0  0  0  0  0  0
   -1.1698   -0.8895    0.1082 C   0  0  0  0  0  0  0  0  0  0  0  0
    1.5364   -0.2386    0.1440 C   0  0  0  0  0  0  0  0  0  0  0  0
    3.7799   -0.5649   -0.8118 C   0  0  0  0  0  0  0  0  0  0  0  0
    0.5825    0.7567   -0.0867 C   0  0  0  0  0  0  0  0  0  0  0  0
    5.2380   -0.5124   -0.3317 C   0  0  1  0  0  0  0  0  0  0  0  0
    3.3111    1.4320    0.5928 C   0  0  0  0  0  0  0  0  0  0  0  0
    4.7784    1.4236    1.0183 C   0  0  0  0  0  0  0  0  0  0  0  0
   -0.2133   -1.8858    0.3392 C   0  0  0  0  0  0  0  0  0  0  0  0
   -3.5889   -0.1707   -0.1551 C   0  0  0  0  0  0  0  0  0  0  0  0
   -2.6098   -1.2593    0.0931 C   0  0  0  0  0  0  0  0  0  0  0  0
    1.1394   -1.5557    0.3563 C   0  0  0  0  0  0  0  0  0  0  0  0
    6.1755   -1.0783   -1.3970 C   0  0  0  0  0  0  0  0  0  0  0  0
   -0.5514   -3.3231    0.5774 C   0  0  0  0  0  0  0  0  0  0  0  0
   -5.0376   -0.3780   -0.1995 C   0  0  0  0  0  0  0  0  0  0  0  0
   -1.2941    3.0699   -1.6259 H   0  0  0  0  0  0  0  0  0  0  0  0
   -2.7012    3.6704    1.0832 H   0  0  0  0  0  0  0  0  0  0  0  0
   -2.3105    4.8673   -0.2309 H   0  0  0  0  0  0  0  0  0  0  0  0
    0.1241    4.3142    0.0044 H   0  0  0  0  0  0  0  0  0  0  0  0
   -0.2952    3.1433    1.3331 H   0  0  0  0  0  0  0  0  0  0  0  0
   -3.7921    1.8986   -0.5484 H   0  0  0  0  0  0  0  0  0  0  0  0
    3.6752   -0.0593   -1.7815 H   0  0  0  0  0  0  0  0  0  0  0  0
    3.5054   -1.6130   -0.9739 H   0  0  0  0  0  0  0  0  0  0  0  0
    5.3463   -1.1230    0.5743 H   0  0  0  0  0  0  0  0  0  0  0  0
    0.9182    1.7625   -0.3100 H   0  0  0  0  0  0  0  0  0  0  0  0
    2.7113    1.7686    1.4476 H   0  0  0  0  0  0  0  0  0  0  0  0
    3.1716    2.1503   -0.2253 H   0  0  0  0  0  0  0  0  0  0  0  0
    5.1014    2.4467    1.2400 H   0  0  0  0  0  0  0  0  0  0  0  0
    4.9034    0.8472    1.9433 H   0  0  0  0  0  0  0  0  0  0  0  0
    5.5497    1.4368   -0.8693 H   0  0  0  0  0  0  0  0  0  0  0  0
    5.9190   -2.1190   -1.6226 H   0  0  0  0  0  0  0  0  0  0  0  0
    6.1177   -0.5077   -2.3308 H   0  0  0  0  0  0  0  0  0  0  0  0
    7.2157   -1.0597   -1.0529 H   0  0  0  0  0  0  0  0  0  0  0  0
   -1.1610   -3.4351    1.4800 H   0  0  0  0  0  0  0  0  0  0  0  0
   -1.0631   -3.7516   -0.2905 H   0  0  0  0  0  0  0  0  0  0  0  0
    0.3382   -3.9424    0.7371 H   0  0  0  0  0  0  0  0  0  0  0  0
   -6.2676   -1.8040   -0.6821 H   0  0  0  0  0  0  0  0  0  0  0  0
  1 23  1  0  0  0  0
  2 22  2  0  0  0  0
  3 26  1  0  0  0  0
  3 48  1  0  0  0  0
  4 26  2  0  0  0  0
  5  8  1  0  0  0  0
  5 11  1  0  0  0  0
  5 12  1  0  0  0  0
  6 14  1  0  0  0  0
  6 15  1  0  0  0  0
  6 18  1  0  0  0  0
  7 17  1  0  0  0  0
  7 19  1  0  0  0  0
  7 41  1  0  0  0  0
  8  9  1  0  0  0  0
  8 10  1  0  0  0  0
  8 27  1  0  0  0  0
  9 10  1  0  0  0  0
  9 28  1  0  0  0  0
  9 29  1  0  0  0  0
 10 30  1  0  0  0  0
 10 31  1  0  0  0  0
 11 13  1  0  0  0  0
 11 16  2  0  0  0  0
 12 21  2  0  0  0  0
 12 32  1  0  0  0  0
 13 20  2  0  0  0  0
 13 22  1  0  0  0  0
 14 16  1  0  0  0  0
 14 23  2  0  0  0  0
 15 17  1  0  0  0  0
 15 33  1  0  0  0  0
 15 34  1  0  0  0  0
 16 36  1  0  0  0  0
 17 24  1  0  0  0  0
 17 35  1  0  0  0  0
 18 19  1  0  0  0  0
 18 37  1  0  0  0  0
 18 38  1  0  0  0  0
 19 39  1  0  0  0  0
 19 40  1  0  0  0  0
 20 23  1  0  0  0  0
 20 25  1  0  0  0  0
 21 22  1  0  0  0  0
 21 26  1  0  0  0  0
 24 42  1  0  0  0  0
 24 43  1  0  0  0  0
 24 44  1  0  0  0  0
 25 45  1  0  0  0  0
 25 46  1  0  0  0  0
 25 47  1  0  0  0  0
M  END
> <DATABASE_ID>
DB00365

> <DATABASE_NAME>
drugbank

> <ORIGINAL_SOURCE>
PUBCHEM

> <ORIGINAL_SOURCE_URL>
https://pubchem.ncbi.nlm.nih.gov/rest/pug/compound/inchikey/AIJTTZAVMXIJGM-UHFFFAOYSA-N/SDF?record_type=3d

> <SMILES>
CC1CN(CCN1)C1=C(F)C(C)=C2C(=O)C(=CN(C3CC3)C2=C1)C(O)=O

> <INCHI_IDENTIFIER>
InChI=1S/C19H22FN3O3/c1-10-8-22(6-5-21-10)15-7-14-16(11(2)17(15)20)18(24)13(19(25)26)9-23(14)12-3-4-12/h7,9-10,12,21H,3-6,8H2,1-2H3,(H,25,26)

> <INCHI_KEY>
AIJTTZAVMXIJGM-UHFFFAOYSA-N

> <FORMULA>
C19H22FN3O3

> <MOLECULAR_WEIGHT>
359.3947

> <EXACT_MASS>
359.16451979

> <JCHEM_ACCEPTOR_COUNT>
6

> <JCHEM_AVERAGE_POLARIZABILITY>
37.692870910728004

> <JCHEM_BIOAVAILABILITY>
1

> <JCHEM_DONOR_COUNT>
2

> <JCHEM_FORMAL_CHARGE>
0

> <JCHEM_GHOSE_FILTER>
1

> <JCHEM_IUPAC>
1-cyclopropyl-6-fluoro-5-methyl-7-(3-methylpiperazin-1-yl)-4-oxo-1,4-dihydroquinoline-3-carboxylic acid

> <ALOGPS_LOGP>
-0.12

> <JCHEM_LOGP>
0.11811200672493903

> <ALOGPS_LOGS>
-2.76

> <JCHEM_MDDR_LIKE_RULE>
0

> <JCHEM_NUMBER_OF_RINGS>
4

> <JCHEM_PHYSIOLOGICAL_CHARGE>
0

> <JCHEM_PKA_STRONGEST_ACIDIC>
5.876593176832228

> <JCHEM_PKA_STRONGEST_BASIC>
8.770720290866418

> <JCHEM_POLAR_SURFACE_AREA>
72.88

> <JCHEM_REFRACTIVITY>
97.39939999999999

> <JCHEM_ROTATABLE_BOND_COUNT>
3

> <JCHEM_RULE_OF_FIVE>
1

> <ALOGPS_SOLUBILITY>
6.32e-01 g/l

> <JCHEM_TRADITIONAL_IUPAC>
grepafloxacin

> <JCHEM_VEBER_RULE>
0

$$$$
6249
  -OEChem-10051719143D

 43 45  0     1  0  0  0  0  0999 V2000
   -0.5402    0.6609    1.0826 S   0  0  0  0  0  0  0  0  0  0  0  0
   -2.1304   -2.1944   -1.8722 O   0  0  0  0  0  0  0  0  0  0  0  0
   -4.7937    1.6026   -0.7951 O   0  0  0  0  0  0  0  0  0  0  0  0
   -4.9959   -0.5119    0.0320 O   0  0  0  0  0  0  0  0  0  0  0  0
    1.8502   -2.0152    1.6262 O   0  0  0  0  0  0  0  0  0  0  0  0
   -2.3674   -0.8786    0.0727 N   0  0  0  0  0  0  0  0  0  0  0  0
    0.6507   -1.7828   -0.3445 N   0  0  0  0  0  0  0  0  0  0  0  0
    4.1890   -2.1792    0.1652 N   0  0  0  0  0  0  0  0  0  0  0  0
   -1.3242   -0.9926    1.0963 C   0  0  1  0  0  0  0  0  0  0  0  0
   -2.1535    1.4644    0.6124 C   0  0  0  0  0  0  0  0  0  0  0  0
   -2.8079    0.4391   -0.3384 C   0  0  2  0  0  0  0  0  0  0  0  0
   -0.6744   -2.0731    0.2212 C   0  0  1  0  0  0  0  0  0  0  0  0
   -1.8408   -1.8263   -0.7564 C   0  0  0  0  0  0  0  0  0  0  0  0
   -2.9419    1.7308    1.9019 C   0  0  0  0  0  0  0  0  0  0  0  0
   -1.8616    2.7834   -0.1053 C   0  0  0  0  0  0  0  0  0  0  0  0
   -4.3033    0.4262   -0.3336 C   0  0  0  0  0  0  0  0  0  0  0  0
    1.8202   -1.7785    0.4196 C   0  0  0  0  0  0  0  0  0  0  0  0
    3.0615   -1.4271   -0.3931 C   0  0  1  0  0  0  0  0  0  0  0  0
    3.3056    0.0677   -0.3871 C   0  0  0  0  0  0  0  0  0  0  0  0
    2.7331    0.8483   -1.3755 C   0  0  0  0  0  0  0  0  0  0  0  0
    4.0955    0.6182    0.6063 C   0  0  0  0  0  0  0  0  0  0  0  0
    2.9578    2.2249   -1.3702 C   0  0  0  0  0  0  0  0  0  0  0  0
    4.3202    1.9949    0.6116 C   0  0  0  0  0  0  0  0  0  0  0  0
    3.7513    2.7983   -0.3766 C   0  0  0  0  0  0  0  0  0  0  0  0
   -1.7123   -1.3276    2.0625 H   0  0  0  0  0  0  0  0  0  0  0  0
   -2.4777    0.5810   -1.3764 H   0  0  0  0  0  0  0  0  0  0  0  0
   -0.7093   -3.0788    0.6571 H   0  0  0  0  0  0  0  0  0  0  0  0
   -3.2038    0.8051    2.4266 H   0  0  0  0  0  0  0  0  0  0  0  0
   -2.3722    2.3598    2.5965 H   0  0  0  0  0  0  0  0  0  0  0  0
   -3.8769    2.2624    1.6928 H   0  0  0  0  0  0  0  0  0  0  0  0
   -1.3127    3.4790    0.5404 H   0  0  0  0  0  0  0  0  0  0  0  0
   -1.2657    2.6302   -1.0127 H   0  0  0  0  0  0  0  0  0  0  0  0
   -2.7881    3.2850   -0.4044 H   0  0  0  0  0  0  0  0  0  0  0  0
    0.7320   -1.5698   -1.3359 H   0  0  0  0  0  0  0  0  0  0  0  0
    2.9294   -1.7709   -1.4268 H   0  0  0  0  0  0  0  0  0  0  0  0
   -5.7745    1.6146   -0.7988 H   0  0  0  0  0  0  0  0  0  0  0  0
    5.0188   -2.0218   -0.4065 H   0  0  0  0  0  0  0  0  0  0  0  0
    3.9951   -3.1784    0.1028 H   0  0  0  0  0  0  0  0  0  0  0  0
    2.1131    0.4121   -2.1531 H   0  0  0  0  0  0  0  0  0  0  0  0
    4.5368    0.0230    1.3997 H   0  0  0  0  0  0  0  0  0  0  0  0
    2.5138    2.8506   -2.1389 H   0  0  0  0  0  0  0  0  0  0  0  0
    4.9343    2.4423    1.3877 H   0  0  0  0  0  0  0  0  0  0  0  0
    3.9248    3.8704   -0.3715 H   0  0  0  0  0  0  0  0  0  0  0  0
  1  9  1  0  0  0  0
  1 10  1  0  0  0  0
  2 13  2  0  0  0  0
  3 16  1  0  0  0  0
  3 36  1  0  0  0  0
  4 16  2  0  0  0  0
  5 17  2  0  0  0  0
  6  9  1  0  0  0  0
  6 11  1  0  0  0  0
  6 13  1  0  0  0  0
  7 12  1  0  0  0  0
  7 17  1  0  0  0  0
  7 34  1  0  0  0  0
  8 18  1  0  0  0  0
  8 37  1  0  0  0  0
  8 38  1  0  0  0  0
  9 12  1  0  0  0  0
  9 25  1  0  0  0  0
 10 11  1  0  0  0  0
 10 14  1  0  0  0  0
 10 15  1  0  0  0  0
 11 16  1  0  0  0  0
 11 26  1  0  0  0  0
 12 13  1  0  0  0  0
 12 27  1  0  0  0  0
 14 28  1  0  0  0  0
 14 29  1  0  0  0  0
 14 30  1  0  0  0  0
 15 31  1  0  0  0  0
 15 32  1  0  0  0  0
 15 33  1  0  0  0  0
 17 18  1  0  0  0  0
 18 19  1  0  0  0  0
 18 35  1  0  0  0  0
 19 20  2  0  0  0  0
 19 21  1  0  0  0  0
 20 22  1  0  0  0  0
 20 39  1  0  0  0  0
 21 23  2  0  0  0  0
 21 40  1  0  0  0  0
 22 24  2  0  0  0  0
 22 41  1  0  0  0  0
 23 24  1  0  0  0  0
 23 42  1  0  0  0  0
 24 43  1  0  0  0  0
M  END
> <DATABASE_ID>
DB00415

> <DATABASE_NAME>
drugbank

> <ORIGINAL_SOURCE>
PUBCHEM

> <ORIGINAL_SOURCE_URL>
https://pubchem.ncbi.nlm.nih.gov/rest/pug/compound/inchikey/AVKUERGKIZMTKX-NJBDSQKTSA-N/SDF?record_type=3d

> <SMILES>
[H][C@]12SC(C)(C)[C@@H](N1C(=O)[C@H]2NC(=O)[C@H](N)C1=CC=CC=C1)C(O)=O

> <INCHI_IDENTIFIER>
InChI=1S/C16H19N3O4S/c1-16(2)11(15(22)23)19-13(21)10(14(19)24-16)18-12(20)9(17)8-6-4-3-5-7-8/h3-7,9-11,14H,17H2,1-2H3,(H,18,20)(H,22,23)/t9-,10-,11+,14-/m1/s1

> <INCHI_KEY>
AVKUERGKIZMTKX-NJBDSQKTSA-N

> <FORMULA>
C16H19N3O4S

> <MOLECULAR_WEIGHT>
349.405

> <EXACT_MASS>
349.109626801

> <JCHEM_ACCEPTOR_COUNT>
5

> <JCHEM_AVERAGE_POLARIZABILITY>
34.541206325512505

> <JCHEM_BIOAVAILABILITY>
1

> <JCHEM_DONOR_COUNT>
3

> <JCHEM_FORMAL_CHARGE>
0

> <JCHEM_GHOSE_FILTER>
0

> <JCHEM_IUPAC>
(2S,5R,6R)-6-[(2R)-2-amino-2-phenylacetamido]-3,3-dimethyl-7-oxo-4-thia-1-azabicyclo[3.2.0]heptane-2-carboxylic acid

> <ALOGPS_LOGP>
0.88

> <JCHEM_LOGP>
-2.0066501687027025

> <ALOGPS_LOGS>
-2.76

> <JCHEM_MDDR_LIKE_RULE>
0

> <JCHEM_NUMBER_OF_RINGS>
3

> <JCHEM_PHYSIOLOGICAL_CHARGE>
0

> <JCHEM_PKA>
11.966024558762253

> <JCHEM_PKA_STRONGEST_ACIDIC>
3.2380534931233718

> <JCHEM_PKA_STRONGEST_BASIC>
7.43836141403785

> <JCHEM_POLAR_SURFACE_AREA>
112.72999999999999

> <JCHEM_REFRACTIVITY>
87.52350000000003

> <JCHEM_ROTATABLE_BOND_COUNT>
4

> <JCHEM_RULE_OF_FIVE>
1

> <ALOGPS_SOLUBILITY>
6.05e-01 g/l

> <JCHEM_TRADITIONAL_IUPAC>
ampicillin

> <JCHEM_VEBER_RULE>
0

$$$$
6869
  -OEChem-10051719143D

 42 44  0     1  0  0  0  0  0999 V2000
   -2.0256   -1.2930   -1.1701 S   0  0  0  0  0  0  0  0  0  0  0  0
   -2.0238    1.9566    1.8051 O   0  0  0  0  0  0  0  0  0  0  0  0
   -5.9785   -0.6601    1.3753 O   0  0  0  0  0  0  0  0  0  0  0  0
   -5.5629    1.3847    0.4576 O   0  0  0  0  0  0  0  0  0  0  0  0
    1.5182    1.3613   -1.8035 O   0  0  0  0  0  0  0  0  0  0  0  0
    3.6405   -0.0589   -0.9402 O   0  0  0  0  0  0  0  0  0  0  0  0
   -3.0144    0.7985    0.0029 N   0  0  0  0  0  0  0  0  0  0  0  0
    0.1548    0.5800   -0.0913 N   0  0  0  0  0  0  0  0  0  0  0  0
   -2.1766    0.5307   -1.1697 C   0  0  1  0  0  0  0  0  0  0  0  0
   -3.7193   -1.4719   -0.4156 C   0  0  0  0  0  0  0  0  0  0  0  0
   -3.8134   -0.2761    0.5564 C   0  0  2  0  0  0  0  0  0  0  0  0
   -1.0592    1.3167   -0.4702 C   0  0  1  0  0  0  0  0  0  0  0  0
   -2.0645    1.5037    0.6837 C   0  0  0  0  0  0  0  0  0  0  0  0
   -4.7481   -1.4497   -1.5542 C   0  0  0  0  0  0  0  0  0  0  0  0
   -3.7928   -2.8048    0.3313 C   0  0  0  0  0  0  0  0  0  0  0  0
   -5.1907    0.2645    0.7736 C   0  0  0  0  0  0  0  0  0  0  0  0
    1.3517    0.6699   -0.8023 C   0  0  0  0  0  0  0  0  0  0  0  0
    2.4443   -0.1875   -0.2015 C   0  0  0  0  0  0  0  0  0  0  0  0
    4.8218   -0.2097   -0.2529 C   0  0  0  0  0  0  0  0  0  0  0  0
    4.8659   -1.0432    0.8561 C   0  0  0  0  0  0  0  0  0  0  0  0
    5.9520    0.4744   -0.6785 C   0  0  0  0  0  0  0  0  0  0  0  0
    6.0642   -1.1954    1.5537 C   0  0  0  0  0  0  0  0  0  0  0  0
    7.1503    0.3220    0.0192 C   0  0  0  0  0  0  0  0  0  0  0  0
    7.2063   -0.5129    1.1352 C   0  0  0  0  0  0  0  0  0  0  0  0
   -2.5744    0.9756   -2.0864 H   0  0  0  0  0  0  0  0  0  0  0  0
   -3.3905   -0.5196    1.5403 H   0  0  0  0  0  0  0  0  0  0  0  0
   -0.8245    2.2727   -0.9548 H   0  0  0  0  0  0  0  0  0  0  0  0
   -4.5532   -2.2434   -2.2854 H   0  0  0  0  0  0  0  0  0  0  0  0
   -5.7628   -1.6153   -1.1755 H   0  0  0  0  0  0  0  0  0  0  0  0
   -4.7527   -0.4942   -2.0907 H   0  0  0  0  0  0  0  0  0  0  0  0
   -3.6317   -3.6533   -0.3443 H   0  0  0  0  0  0  0  0  0  0  0  0
   -3.0436   -2.8667    1.1292 H   0  0  0  0  0  0  0  0  0  0  0  0
   -4.7751   -2.9451    0.7949 H   0  0  0  0  0  0  0  0  0  0  0  0
    0.1335   -0.0335    0.7203 H   0  0  0  0  0  0  0  0  0  0  0  0
   -6.8879   -0.3245    1.5259 H   0  0  0  0  0  0  0  0  0  0  0  0
    2.5611    0.1528    0.8361 H   0  0  0  0  0  0  0  0  0  0  0  0
    2.1133   -1.2322   -0.2182 H   0  0  0  0  0  0  0  0  0  0  0  0
    4.0066   -1.6127    1.1962 H   0  0  0  0  0  0  0  0  0  0  0  0
    5.9115    1.1255   -1.5469 H   0  0  0  0  0  0  0  0  0  0  0  0
    6.1101   -1.8503    2.4189 H   0  0  0  0  0  0  0  0  0  0  0  0
    8.0397    0.8532   -0.3068 H   0  0  0  0  0  0  0  0  0  0  0  0
    8.1397   -0.6326    1.6774 H   0  0  0  0  0  0  0  0  0  0  0  0
  1  9  1  0  0  0  0
  1 10  1  0  0  0  0
  2 13  2  0  0  0  0
  3 16  1  0  0  0  0
  3 35  1  0  0  0  0
  4 16  2  0  0  0  0
  5 17  2  0  0  0  0
  6 18  1  0  0  0  0
  6 19  1  0  0  0  0
  7  9  1  0  0  0  0
  7 11  1  0  0  0  0
  7 13  1  0  0  0  0
  8 12  1  0  0  0  0
  8 17  1  0  0  0  0
  8 34  1  0  0  0  0
  9 12  1  0  0  0  0
  9 25  1  0  0  0  0
 10 11  1  0  0  0  0
 10 14  1  0  0  0  0
 10 15  1  0  0  0  0
 11 16  1  0  0  0  0
 11 26  1  0  0  0  0
 12 13  1  0  0  0  0
 12 27  1  0  0  0  0
 14 28  1  0  0  0  0
 14 29  1  0  0  0  0
 14 30  1  0  0  0  0
 15 31  1  0  0  0  0
 15 32  1  0  0  0  0
 15 33  1  0  0  0  0
 17 18  1  0  0  0  0
 18 36  1  0  0  0  0
 18 37  1  0  0  0  0
 19 20  2  0  0  0  0
 19 21  1  0  0  0  0
 20 22  1  0  0  0  0
 20 38  1  0  0  0  0
 21 23  2  0  0  0  0
 21 39  1  0  0  0  0
 22 24  2  0  0  0  0
 22 40  1  0  0  0  0
 23 24  1  0  0  0  0
 23 41  1  0  0  0  0
 24 42  1  0  0  0  0
M  END
> <DATABASE_ID>
DB00417

> <DATABASE_NAME>
drugbank

> <ORIGINAL_SOURCE>
PUBCHEM

> <ORIGINAL_SOURCE_URL>
https://pubchem.ncbi.nlm.nih.gov/rest/pug/compound/inchikey/BPLBGHOLXOTWMN-MBNYWOFBSA-N/SDF?record_type=3d

> <SMILES>
[H][C@]12SC(C)(C)[C@@H](N1C(=O)[C@H]2NC(=O)COC1=CC=CC=C1)C(O)=O

> <INCHI_IDENTIFIER>
InChI=1S/C16H18N2O5S/c1-16(2)12(15(21)22)18-13(20)11(14(18)24-16)17-10(19)8-23-9-6-4-3-5-7-9/h3-7,11-12,14H,8H2,1-2H3,(H,17,19)(H,21,22)/t11-,12+,14-/m1/s1

> <INCHI_KEY>
BPLBGHOLXOTWMN-MBNYWOFBSA-N

> <FORMULA>
C16H18N2O5S

> <MOLECULAR_WEIGHT>
350.39

> <EXACT_MASS>
350.093642386

> <JCHEM_ACCEPTOR_COUNT>
5

> <JCHEM_AVERAGE_POLARIZABILITY>
34.37043845426734

> <JCHEM_BIOAVAILABILITY>
1

> <JCHEM_DONOR_COUNT>
2

> <JCHEM_FORMAL_CHARGE>
0

> <JCHEM_GHOSE_FILTER>
1

> <JCHEM_IUPAC>
(2S,5R,6R)-3,3-dimethyl-7-oxo-6-(2-phenoxyacetamido)-4-thia-1-azabicyclo[3.2.0]heptane-2-carboxylic acid

> <ALOGPS_LOGP>
1.78

> <JCHEM_LOGP>
0.7632417063333333

> <ALOGPS_LOGS>
-2.89

> <JCHEM_MDDR_LIKE_RULE>
0

> <JCHEM_NUMBER_OF_RINGS>
3

> <JCHEM_PHYSIOLOGICAL_CHARGE>
-1

> <JCHEM_PKA>
11.741506321839815

> <JCHEM_PKA_STRONGEST_ACIDIC>
3.390268054489988

> <JCHEM_PKA_STRONGEST_BASIC>
-4.869023346985543

> <JCHEM_POLAR_SURFACE_AREA>
95.94

> <JCHEM_REFRACTIVITY>
85.76800000000003

> <JCHEM_ROTATABLE_BOND_COUNT>
5

> <JCHEM_RULE_OF_FIVE>
1

> <ALOGPS_SOLUBILITY>
4.54e-01 g/l

> <JCHEM_TRADITIONAL_IUPAC>
penicillin V

> <JCHEM_VEBER_RULE>
0

$$$$
3324
  -OEChem-10051719143D

 42 43  0     0  0  0  0  0  0999 V2000
    3.6199    1.5080   -0.0625 O   0  0  0  0  0  0  0  0  0  0  0  0
    1.5277   -2.2130    0.0950 O   0  0  0  0  0  0  0  0  0  0  0  0
    5.2684    1.0234   -1.6069 O   0  0  0  0  0  0  0  0  0  0  0  0
    1.3900   -4.2366    1.2007 O   0  0  0  0  0  0  0  0  0  0  0  0
   -1.5083    1.2507    0.9952 N   0  0  0  0  0  0  0  0  0  0  0  0
   -2.9882    2.8415    0.5659 N   0  0  0  0  0  0  0  0  0  0  0  0
   -2.5449   -0.6281   -0.1367 N   0  0  0  0  0  0  0  0  0  0  0  0
   -4.6446    0.0376   -1.1877 N   0  0  0  0  0  0  0  0  0  0  0  0
   -3.8491   -2.1611   -1.3302 N   0  0  0  0  0  0  0  0  0  0  0  0
    2.1619   -0.0710    1.0622 C   0  0  0  0  0  0  0  0  0  0  0  0
    0.8945    0.6695    0.5711 C   0  0  0  0  0  0  0  0  0  0  0  0
   -0.3066    0.6147    1.5228 C   0  0  0  0  0  0  0  0  0  0  0  0
    3.3071    0.1254    0.0534 C   0  0  0  0  0  0  0  0  0  0  0  0
    1.9265   -1.5697    1.2975 C   0  0  0  0  0  0  0  0  0  0  0  0
   -2.4772    0.6519    0.2585 C   0  0  0  0  0  0  0  0  0  0  0  0
   -1.8472    2.5583    1.1588 C   0  0  0  0  0  0  0  0  0  0  0  0
   -3.3930    1.6591   -0.0008 C   0  0  0  0  0  0  0  0  0  0  0  0
   -4.5106    1.3142   -0.7543 C   0  0  0  0  0  0  0  0  0  0  0  0
    4.6273    1.8187   -0.9333 C   0  0  0  0  0  0  0  0  0  0  0  0
    1.2898   -3.5568    0.1884 C   0  0  0  0  0  0  0  0  0  0  0  0
   -3.6678   -0.8412   -0.8570 C   0  0  0  0  0  0  0  0  0  0  0  0
    4.8449    3.3015   -0.9522 C   0  0  0  0  0  0  0  0  0  0  0  0
    0.8796   -4.0969   -1.1481 C   0  0  0  0  0  0  0  0  0  0  0  0
    2.4609    0.3875    2.0140 H   0  0  0  0  0  0  0  0  0  0  0  0
    0.5951    0.2664   -0.4056 H   0  0  0  0  0  0  0  0  0  0  0  0
    1.1354    1.7256    0.3933 H   0  0  0  0  0  0  0  0  0  0  0  0
   -0.5838   -0.4176    1.7591 H   0  0  0  0  0  0  0  0  0  0  0  0
   -0.0659    1.1117    2.4700 H   0  0  0  0  0  0  0  0  0  0  0  0
    4.1987   -0.4116    0.3996 H   0  0  0  0  0  0  0  0  0  0  0  0
    3.0220   -0.2638   -0.9317 H   0  0  0  0  0  0  0  0  0  0  0  0
    1.1652   -1.7229    2.0700 H   0  0  0  0  0  0  0  0  0  0  0  0
    2.8570   -2.0285    1.6553 H   0  0  0  0  0  0  0  0  0  0  0  0
   -1.2360    3.2592    1.7112 H   0  0  0  0  0  0  0  0  0  0  0  0
   -5.2957    2.0086   -1.0235 H   0  0  0  0  0  0  0  0  0  0  0  0
    5.1351    3.6459    0.0436 H   0  0  0  0  0  0  0  0  0  0  0  0
    3.9334    3.8052   -1.2837 H   0  0  0  0  0  0  0  0  0  0  0  0
    5.6501    3.5412   -1.6525 H   0  0  0  0  0  0  0  0  0  0  0  0
    1.6794   -3.9339   -1.8747 H   0  0  0  0  0  0  0  0  0  0  0  0
   -0.0433   -3.6114   -1.4754 H   0  0  0  0  0  0  0  0  0  0  0  0
    0.6978   -5.1722   -1.0649 H   0  0  0  0  0  0  0  0  0  0  0  0
   -3.1546   -2.8640   -1.1183 H   0  0  0  0  0  0  0  0  0  0  0  0
   -4.6698   -2.3846   -1.8759 H   0  0  0  0  0  0  0  0  0  0  0  0
  1 13  1  0  0  0  0
  1 19  1  0  0  0  0
  2 14  1  0  0  0  0
  2 20  1  0  0  0  0
  3 19  2  0  0  0  0
  4 20  2  0  0  0  0
  5 12  1  0  0  0  0
  5 15  1  0  0  0  0
  5 16  1  0  0  0  0
  6 16  2  0  0  0  0
  6 17  1  0  0  0  0
  7 15  2  0  0  0  0
  7 21  1  0  0  0  0
  8 18  1  0  0  0  0
  8 21  2  0  0  0  0
  9 21  1  0  0  0  0
  9 41  1  0  0  0  0
  9 42  1  0  0  0  0
 10 11  1  0  0  0  0
 10 13  1  0  0  0  0
 10 14  1  0  0  0  0
 10 24  1  0  0  0  0
 11 12  1  0  0  0  0
 11 25  1  0  0  0  0
 11 26  1  0  0  0  0
 12 27  1  0  0  0  0
 12 28  1  0  0  0  0
 13 29  1  0  0  0  0
 13 30  1  0  0  0  0
 14 31  1  0  0  0  0
 14 32  1  0  0  0  0
 15 17  1  0  0  0  0
 16 33  1  0  0  0  0
 17 18  2  0  0  0  0
 18 34  1  0  0  0  0
 19 22  1  0  0  0  0
 20 23  1  0  0  0  0
 22 35  1  0  0  0  0
 22 36  1  0  0  0  0
 22 37  1  0  0  0  0
 23 38  1  0  0  0  0
 23 39  1  0  0  0  0
 23 40  1  0  0  0  0
M  END
> <DATABASE_ID>
DB00426

> <DATABASE_NAME>
drugbank

> <ORIGINAL_SOURCE>
PUBCHEM

> <ORIGINAL_SOURCE_URL>
https://pubchem.ncbi.nlm.nih.gov/rest/pug/compound/inchikey/GGXKWVWZWMLJEH-UHFFFAOYSA-N/SDF?record_type=3d

> <SMILES>
CC(=O)OCC(CCN1C=NC2=CN=C(N)N=C12)COC(C)=O

> <INCHI_IDENTIFIER>
InChI=1S/C14H19N5O4/c1-9(20)22-6-11(7-23-10(2)21)3-4-19-8-17-12-5-16-14(15)18-13(12)19/h5,8,11H,3-4,6-7H2,1-2H3,(H2,15,16,18)

> <INCHI_KEY>
GGXKWVWZWMLJEH-UHFFFAOYSA-N

> <FORMULA>
C14H19N5O4

> <MOLECULAR_WEIGHT>
321.3318

> <EXACT_MASS>
321.143704121

> <JCHEM_ACCEPTOR_COUNT>
6

> <JCHEM_AVERAGE_POLARIZABILITY>
32.82547944138288

> <JCHEM_BIOAVAILABILITY>
1

> <JCHEM_DONOR_COUNT>
1

> <JCHEM_FORMAL_CHARGE>
0

> <JCHEM_GHOSE_FILTER>
0

> <JCHEM_IUPAC>
2-[(acetyloxy)methyl]-4-(2-amino-9H-purin-9-yl)butyl acetate

> <ALOGPS_LOGP>
0.13

> <JCHEM_LOGP>
-0.4836860169999998

> <ALOGPS_LOGS>
-2.39

> <JCHEM_MDDR_LIKE_RULE>
0

> <JCHEM_NUMBER_OF_RINGS>
2

> <JCHEM_PHYSIOLOGICAL_CHARGE>
0

> <JCHEM_PKA_STRONGEST_ACIDIC>
16.700940442073367

> <JCHEM_PKA_STRONGEST_BASIC>
5.048475789934001

> <JCHEM_POLAR_SURFACE_AREA>
122.22

> <JCHEM_REFRACTIVITY>
81.53530000000002

> <JCHEM_ROTATABLE_BOND_COUNT>
9

> <JCHEM_RULE_OF_FIVE>
1

> <ALOGPS_SOLUBILITY>
1.32e+00 g/l

> <JCHEM_TRADITIONAL_IUPAC>
famciclovir

> <JCHEM_VEBER_RULE>
0

$$$$
6256
  -OEChem-10051719153D

 31 32  0     1  0  0  0  0  0999 V2000
   -1.7980    2.5059   -0.1315 F   0  0  0  0  0  0  0  0  0  0  0  0
   -3.3132    1.4566   -1.2959 F   0  0  0  0  0  0  0  0  0  0  0  0
   -3.4855    1.5611    0.8746 F   0  0  0  0  0  0  0  0  0  0  0  0
    2.0134    0.2723    1.0117 O   0  0  0  0  0  0  0  0  0  0  0  0
    4.6217   -0.7561   -0.2179 O   0  0  0  0  0  0  0  0  0  0  0  0
    1.9123    3.0581    0.7242 O   0  0  0  0  0  0  0  0  0  0  0  0
    0.2161   -3.3724    0.3045 O   0  0  0  0  0  0  0  0  0  0  0  0
   -3.7940   -1.1605   -0.1134 O   0  0  0  0  0  0  0  0  0  0  0  0
    0.2561   -1.0406    0.1976 N   0  0  0  0  0  0  0  0  0  0  0  0
   -1.7768   -2.2566    0.0954 N   0  0  0  0  0  0  0  0  0  0  0  0
    1.6815   -0.9309    0.3043 C   0  0  1  0  0  0  0  0  0  0  0  0
    3.5607    0.0224   -0.7672 C   0  0  1  0  0  0  0  0  0  0  0  0
    2.3707   -0.8655   -1.0489 C   0  0  0  0  0  0  0  0  0  0  0  0
    3.0293    0.9881    0.2829 C   0  0  1  0  0  0  0  0  0  0  0  0
    2.3847    2.2275   -0.3240 C   0  0  0  0  0  0  0  0  0  0  0  0
   -0.4911    0.1247    0.0838 C   0  0  0  0  0  0  0  0  0  0  0  0
   -0.3825   -2.2992    0.2067 C   0  0  0  0  0  0  0  0  0  0  0  0
   -1.8251    0.1620   -0.0227 C   0  0  0  0  0  0  0  0  0  0  0  0
   -2.5700   -1.1251   -0.0199 C   0  0  0  0  0  0  0  0  0  0  0  0
   -2.6103    1.4283   -0.1442 C   0  0  0  0  0  0  0  0  0  0  0  0
    2.0760   -1.7710    0.8881 H   0  0  0  0  0  0  0  0  0  0  0  0
    3.9479    0.5249   -1.6585 H   0  0  0  0  0  0  0  0  0  0  0  0
    1.7255   -0.3909   -1.7981 H   0  0  0  0  0  0  0  0  0  0  0  0
    2.6327   -1.8634   -1.4146 H   0  0  0  0  0  0  0  0  0  0  0  0
    3.7975    1.2787    1.0080 H   0  0  0  0  0  0  0  0  0  0  0  0
    1.5551    1.9955   -0.9955 H   0  0  0  0  0  0  0  0  0  0  0  0
    3.1296    2.7941   -0.8929 H   0  0  0  0  0  0  0  0  0  0  0  0
    0.0443    1.0593    0.0906 H   0  0  0  0  0  0  0  0  0  0  0  0
    4.8929   -1.3976   -0.8965 H   0  0  0  0  0  0  0  0  0  0  0  0
   -2.2585   -3.1514    0.1000 H   0  0  0  0  0  0  0  0  0  0  0  0
    1.5202    3.8459    0.3106 H   0  0  0  0  0  0  0  0  0  0  0  0
  1 20  1  0  0  0  0
  2 20  1  0  0  0  0
  3 20  1  0  0  0  0
  4 11  1  0  0  0  0
  4 14  1  0  0  0  0
  5 12  1  0  0  0  0
  5 29  1  0  0  0  0
  6 15  1  0  0  0  0
  6 31  1  0  0  0  0
  7 17  2  0  0  0  0
  8 19  2  0  0  0  0
  9 11  1  0  0  0  0
  9 16  1  0  0  0  0
  9 17  1  0  0  0  0
 10 17  1  0  0  0  0
 10 19  1  0  0  0  0
 10 30  1  0  0  0  0
 11 13  1  0  0  0  0
 11 21  1  0  0  0  0
 12 13  1  0  0  0  0
 12 14  1  0  0  0  0
 12 22  1  0  0  0  0
 13 23  1  0  0  0  0
 13 24  1  0  0  0  0
 14 15  1  0  0  0  0
 14 25  1  0  0  0  0
 15 26  1  0  0  0  0
 15 27  1  0  0  0  0
 16 18  2  0  0  0  0
 16 28  1  0  0  0  0
 18 19  1  0  0  0  0
 18 20  1  0  0  0  0
M  END
> <DATABASE_ID>
DB00432

> <DATABASE_NAME>
drugbank

> <ORIGINAL_SOURCE>
PUBCHEM

> <ORIGINAL_SOURCE_URL>
https://pubchem.ncbi.nlm.nih.gov/rest/pug/compound/inchikey/VSQQQLOSPVPRAZ-RRKCRQDMSA-N/SDF?record_type=3d

> <SMILES>
OC[C@H]1O[C@H](C[C@@H]1O)N1C=C(C(=O)NC1=O)C(F)(F)F

> <INCHI_IDENTIFIER>
InChI=1S/C10H11F3N2O5/c11-10(12,13)4-2-15(9(19)14-8(4)18)7-1-5(17)6(3-16)20-7/h2,5-7,16-17H,1,3H2,(H,14,18,19)/t5-,6+,7+/m0/s1

> <INCHI_KEY>
VSQQQLOSPVPRAZ-RRKCRQDMSA-N

> <FORMULA>
C10H11F3N2O5

> <MOLECULAR_WEIGHT>
296.1999

> <EXACT_MASS>
296.062006087

> <JCHEM_ACCEPTOR_COUNT>
5

> <JCHEM_AVERAGE_POLARIZABILITY>
23.074149718395166

> <JCHEM_BIOAVAILABILITY>
1

> <JCHEM_DONOR_COUNT>
3

> <JCHEM_FORMAL_CHARGE>
0

> <JCHEM_GHOSE_FILTER>
0

> <JCHEM_IUPAC>
1-[(2R,4S,5R)-4-hydroxy-5-(hydroxymethyl)oxolan-2-yl]-5-(trifluoromethyl)-1,2,3,4-tetrahydropyrimidine-2,4-dione

> <ALOGPS_LOGP>
-0.45

> <JCHEM_LOGP>
-0.7546264969999998

> <ALOGPS_LOGS>
-1.65

> <JCHEM_MDDR_LIKE_RULE>
0

> <JCHEM_NUMBER_OF_RINGS>
2

> <JCHEM_PHYSIOLOGICAL_CHARGE>
0

> <JCHEM_PKA>
13.907878998150686

> <JCHEM_PKA_STRONGEST_ACIDIC>
7.59857689451916

> <JCHEM_PKA_STRONGEST_BASIC>
-2.9780835895525817

> <JCHEM_POLAR_SURFACE_AREA>
99.09999999999998

> <JCHEM_REFRACTIVITY>
56.3445

> <JCHEM_ROTATABLE_BOND_COUNT>
3

> <JCHEM_RULE_OF_FIVE>
1

> <ALOGPS_SOLUBILITY>
6.69e+00 g/l

> <JCHEM_TRADITIONAL_IUPAC>
trifluridine

> <JCHEM_VEBER_RULE>
0

$$$$
5959
  -OEChem-10051719153D

 32 32  0     1  0  0  0  0  0999 V2000
   -5.6487    1.8392    0.5707 Cl  0  0  0  0  0  0  0  0  0  0  0  0
   -6.1225   -0.7375   -0.7207 Cl  0  0  0  0  0  0  0  0  0  0  0  0
   -0.6465    0.9864    1.8314 O   0  0  0  0  0  0  0  0  0  0  0  0
   -1.2419   -2.7009   -0.3042 O   0  0  0  0  0  0  0  0  0  0  0  0
   -3.5739    0.8392   -1.5011 O   0  0  0  0  0  0  0  0  0  0  0  0
    5.9774   -0.5362   -0.0210 O   0  5  0  0  0  0  0  0  0  0  0  0
    5.4962    1.2406   -1.2171 O   0  0  0  0  0  0  0  0  0  0  0  0
   -2.6655   -0.2485    0.3337 N   0  0  0  0  0  0  0  0  0  0  0  0
    5.1525    0.3025   -0.4580 N   0  3  0  0  0  0  0  0  0  0  0  0
   -1.2974   -0.2614   -0.1484 C   0  0  1  0  0  0  0  0  0  0  0  0
   -0.3259   -0.1677    1.0478 C   0  0  1  0  0  0  0  0  0  0  0  0
    1.1271   -0.0428    0.6493 C   0  0  0  0  0  0  0  0  0  0  0  0
   -1.0827   -1.4926   -1.0366 C   0  0  0  0  0  0  0  0  0  0  0  0
    2.0423   -0.9644    1.1287 C   0  0  0  0  0  0  0  0  0  0  0  0
    1.5126    0.9908   -0.1878 C   0  0  0  0  0  0  0  0  0  0  0  0
   -3.6981    0.3097   -0.3977 C   0  0  0  0  0  0  0  0  0  0  0  0
    3.3828   -0.8493    0.7604 C   0  0  0  0  0  0  0  0  0  0  0  0
    2.8530    1.1061   -0.5562 C   0  0  0  0  0  0  0  0  0  0  0  0
    3.7882    0.1858   -0.0822 C   0  0  0  0  0  0  0  0  0  0  0  0
   -5.0290    0.2009    0.3090 C   0  0  0  0  0  0  0  0  0  0  0  0
   -1.1860    0.6296   -0.7784 H   0  0  0  0  0  0  0  0  0  0  0  0
   -0.4648   -1.0347    1.7060 H   0  0  0  0  0  0  0  0  0  0  0  0
   -0.0800   -1.4876   -1.4756 H   0  0  0  0  0  0  0  0  0  0  0  0
   -1.8072   -1.5032   -1.8586 H   0  0  0  0  0  0  0  0  0  0  0  0
   -2.8695   -0.7328    1.2030 H   0  0  0  0  0  0  0  0  0  0  0  0
    1.7383   -1.7751    1.7844 H   0  0  0  0  0  0  0  0  0  0  0  0
    0.8019    1.7242   -0.5564 H   0  0  0  0  0  0  0  0  0  0  0  0
   -1.5825    0.9159    2.0855 H   0  0  0  0  0  0  0  0  0  0  0  0
    4.0832   -1.5844    1.1486 H   0  0  0  0  0  0  0  0  0  0  0  0
    3.1331    1.9267   -1.2118 H   0  0  0  0  0  0  0  0  0  0  0  0
   -1.0910   -3.4334   -0.9256 H   0  0  0  0  0  0  0  0  0  0  0  0
   -4.9533   -0.2982    1.2783 H   0  0  0  0  0  0  0  0  0  0  0  0
  1 20  1  0  0  0  0
  2 20  1  0  0  0  0
  3 11  1  0  0  0  0
  3 28  1  0  0  0  0
  4 13  1  0  0  0  0
  4 31  1  0  0  0  0
  5 16  2  0  0  0  0
  6  9  1  0  0  0  0
  7  9  2  0  0  0  0
  8 10  1  0  0  0  0
  8 16  1  0  0  0  0
  8 25  1  0  0  0  0
  9 19  1  0  0  0  0
 10 11  1  0  0  0  0
 10 13  1  0  0  0  0
 10 21  1  0  0  0  0
 11 12  1  0  0  0  0
 11 22  1  0  0  0  0
 12 14  2  0  0  0  0
 12 15  1  0  0  0  0
 13 23  1  0  0  0  0
 13 24  1  0  0  0  0
 14 17  1  0  0  0  0
 14 26  1  0  0  0  0
 15 18  2  0  0  0  0
 15 27  1  0  0  0  0
 16 20  1  0  0  0  0
 17 19  2  0  0  0  0
 17 29  1  0  0  0  0
 18 19  1  0  0  0  0
 18 30  1  0  0  0  0
 20 32  1  0  0  0  0
M  CHG  2   6  -1   9   1
M  END
> <DATABASE_ID>
DB00446

> <DATABASE_NAME>
drugbank

> <ORIGINAL_SOURCE>
PUBCHEM

> <ORIGINAL_SOURCE_URL>
https://pubchem.ncbi.nlm.nih.gov/rest/pug/compound/inchikey/WIIZWVCIJKGZOK-RKDXNWHRSA-N/SDF?record_type=3d

> <SMILES>
OC[C@@H](NC(=O)C(Cl)Cl)[C@H](O)C1=CC=C(C=C1)[N+]([O-])=O

> <INCHI_IDENTIFIER>
InChI=1S/C11H12Cl2N2O5/c12-10(13)11(18)14-8(5-16)9(17)6-1-3-7(4-2-6)15(19)20/h1-4,8-10,16-17H,5H2,(H,14,18)/t8-,9-/m1/s1

> <INCHI_KEY>
WIIZWVCIJKGZOK-RKDXNWHRSA-N

> <FORMULA>
C11H12Cl2N2O5

> <MOLECULAR_WEIGHT>
323.129

> <EXACT_MASS>
322.012326918

> <JCHEM_ACCEPTOR_COUNT>
5

> <JCHEM_AVERAGE_POLARIZABILITY>
28.083065806597737

> <JCHEM_BIOAVAILABILITY>
1

> <JCHEM_DONOR_COUNT>
3

> <JCHEM_FORMAL_CHARGE>
0

> <JCHEM_GHOSE_FILTER>
1

> <JCHEM_IUPAC>
2,2-dichloro-N-[(1R,2R)-1,3-dihydroxy-1-(4-nitrophenyl)propan-2-yl]acetamide

> <ALOGPS_LOGP>
1.15

> <JCHEM_LOGP>
0.8787034880000002

> <ALOGPS_LOGS>
-2.85

> <JCHEM_MDDR_LIKE_RULE>
0

> <JCHEM_NUMBER_OF_RINGS>
1

> <JCHEM_PHYSIOLOGICAL_CHARGE>
0

> <JCHEM_PKA>
13.587750033412025

> <JCHEM_PKA_STRONGEST_ACIDIC>
7.494317415220007

> <JCHEM_PKA_STRONGEST_BASIC>
-2.79485022158514

> <JCHEM_POLAR_SURFACE_AREA>
115.37999999999997

> <JCHEM_REFRACTIVITY>
73.2007

> <JCHEM_ROTATABLE_BOND_COUNT>
6

> <JCHEM_RULE_OF_FIVE>
1

> <ALOGPS_SOLUBILITY>
4.61e-01 g/l

> <JCHEM_TRADITIONAL_IUPAC>
chloramphenicol

> <JCHEM_VEBER_RULE>
0

$$$$
8378
  -OEChem-03052013533D

 88 91  0     1  0  0  0  0  0999 V2000
    0.6873   -1.6258   -0.1083 O   0  0  0  0  0  0  0  0  0  0  0  0
    3.0909   -0.2523   -0.7640 O   0  0  0  0  0  0  0  0  0  0  0  0
    0.0292   -1.6365   -2.3674 O   0  0  0  0  0  0  0  0  0  0  0  0
   -3.2602   -0.4652   -1.5445 O   0  0  0  0  0  0  0  0  0  0  0  0
    1.1014   -4.4369    0.4722 O   0  0  0  0  0  0  0  0  0  0  0  0
    3.4890    1.5281    0.7137 O   0  0  0  0  0  0  0  0  0  0  0  0
   -3.4599    0.6107    0.5379 O   0  0  0  0  0  0  0  0  0  0  0  0
   -2.3961   -3.0607   -1.3061 O   0  0  0  0  0  0  0  0  0  0  0  0
    1.0095    3.5089   -0.9714 O   0  0  0  0  0  0  0  0  0  0  0  0
    4.4798    4.2029   -0.2159 O   0  0  0  0  0  0  0  0  0  0  0  0
   -6.3329   -1.3596    1.2973 O   0  0  0  0  0  0  0  0  0  0  0  0
    0.0102    0.2805   -4.4365 O   0  0  0  0  0  0  0  0  0  0  0  0
   -5.7796    2.2473    1.2883 O   0  0  0  0  0  0  0  0  0  0  0  0
    5.2881   -0.7104    1.0774 N   0  0  0  0  0  0  0  0  0  0  0  0
    3.2338   -4.9543    2.3523 N   0  0  0  0  0  0  0  0  0  0  0  0
    4.1577    1.9688   -2.1306 N   0  0  0  0  0  0  0  0  0  0  0  0
   -5.6467    1.0334   -1.4125 N   0  0  0  0  0  0  0  0  0  0  0  0
    1.5327    4.0299    2.6444 N   0  0  0  0  0  0  0  0  0  0  0  0
   -1.9271    1.3555    2.7548 N   0  0  0  0  0  0  0  0  0  0  0  0
    1.9718   -2.2525   -0.0389 C   0  0  1  0  0  0  0  0  0  0  0  0
    2.9937   -1.1711    0.3282 C   0  0  1  0  0  0  0  0  0  0  0  0
    4.3782   -1.7641    0.6209 C   0  0  2  0  0  0  0  0  0  0  0  0
    1.9186   -3.3850    0.9930 C   0  0  2  0  0  0  0  0  0  0  0  0
    3.3128   -3.9582    1.2801 C   0  0  1  0  0  0  0  0  0  0  0  0
    4.2970   -2.8585    1.6885 C   0  0  0  0  0  0  0  0  0  0  0  0
   -0.1409   -2.2571   -1.0775 C   0  0  2  0  0  0  0  0  0  0  0  0
   -1.8846   -0.7087   -1.3418 C   0  0  1  0  0  0  0  0  0  0  0  0
   -1.5994   -2.0499   -0.6965 C   0  0  1  0  0  0  0  0  0  0  0  0
   -1.1281   -0.8314   -2.6544 C   0  0  1  0  0  0  0  0  0  0  0  0
    2.6899    1.0603   -0.3715 C   0  0  1  0  0  0  0  0  0  0  0  0
    2.7984    2.0021   -1.5801 C   0  0  1  0  0  0  0  0  0  0  0  0
    2.4208    3.4350   -1.1735 C   0  0  2  0  0  0  0  0  0  0  0  0
   -3.9780   -0.4126   -0.3135 C   0  0  1  0  0  0  0  0  0  0  0  0
    3.1240    3.8868    0.1121 C   0  0  1  0  0  0  0  0  0  0  0  0
    3.1272    2.8187    1.2200 C   0  0  1  0  0  0  0  0  0  0  0  0
   -5.4706   -0.1762   -0.6022 C   0  0  1  0  0  0  0  0  0  0  0  0
   -6.2554   -0.0568    0.7147 C   0  0  2  0  0  0  0  0  0  0  0  0
   -0.6920    0.5063   -3.2252 C   0  0  0  0  0  0  0  0  0  0  0  0
   -5.5837    0.8999    1.7109 C   0  0  1  0  0  0  0  0  0  0  0  0
   -4.0780    0.6107    1.8309 C   0  0  2  0  0  0  0  0  0  0  0  0
    1.8228    2.7518    2.0122 C   0  0  0  0  0  0  0  0  0  0  0  0
   -3.3517    1.6462    2.6825 C   0  0  0  0  0  0  0  0  0  0  0  0
    2.2340   -2.6464   -1.0317 H   0  0  0  0  0  0  0  0  0  0  0  0
    2.6194   -0.6688    1.2334 H   0  0  0  0  0  0  0  0  0  0  0  0
    4.7947   -2.1829   -0.3041 H   0  0  0  0  0  0  0  0  0  0  0  0
    1.4364   -3.0302    1.9124 H   0  0  0  0  0  0  0  0  0  0  0  0
    3.6915   -4.4678    0.3847 H   0  0  0  0  0  0  0  0  0  0  0  0
    5.2928   -3.2934    1.8487 H   0  0  0  0  0  0  0  0  0  0  0  0
    3.9871   -2.4200    2.6480 H   0  0  0  0  0  0  0  0  0  0  0  0
    0.0745   -3.3183   -1.2132 H   0  0  0  0  0  0  0  0  0  0  0  0
   -1.4361    0.0965   -0.7439 H   0  0  0  0  0  0  0  0  0  0  0  0
   -1.7714   -2.0623    0.3840 H   0  0  0  0  0  0  0  0  0  0  0  0
   -1.7161   -1.3701   -3.4084 H   0  0  0  0  0  0  0  0  0  0  0  0
    1.6400    0.9977   -0.0619 H   0  0  0  0  0  0  0  0  0  0  0  0
    2.1273    1.6406   -2.3659 H   0  0  0  0  0  0  0  0  0  0  0  0
    2.6602    4.1297   -1.9886 H   0  0  0  0  0  0  0  0  0  0  0  0
   -3.8872   -1.3805    0.1936 H   0  0  0  0  0  0  0  0  0  0  0  0
    5.3758    0.0019    0.3537 H   0  0  0  0  0  0  0  0  0  0  0  0
    6.2204   -1.0983    1.2149 H   0  0  0  0  0  0  0  0  0  0  0  0
    2.6719    4.8192    0.4669 H   0  0  0  0  0  0  0  0  0  0  0  0
    3.9279    3.0661    1.9297 H   0  0  0  0  0  0  0  0  0  0  0  0
    2.6099   -5.7093    2.0703 H   0  0  0  0  0  0  0  0  0  0  0  0
    4.1503   -5.3760    2.4969 H   0  0  0  0  0  0  0  0  0  0  0  0
   -5.8463   -1.0246   -1.1879 H   0  0  0  0  0  0  0  0  0  0  0  0
   -7.2833    0.2638    0.5054 H   0  0  0  0  0  0  0  0  0  0  0  0
    1.5517   -4.8120   -0.3039 H   0  0  0  0  0  0  0  0  0  0  0  0
   -0.0207    1.0220   -2.5349 H   0  0  0  0  0  0  0  0  0  0  0  0
   -1.5561    1.1452   -3.4323 H   0  0  0  0  0  0  0  0  0  0  0  0
   -6.0403    0.7980    2.7027 H   0  0  0  0  0  0  0  0  0  0  0  0
   -3.9325   -0.3813    2.2805 H   0  0  0  0  0  0  0  0  0  0  0  0
   -2.1477   -3.9095   -0.9017 H   0  0  0  0  0  0  0  0  0  0  0  0
    0.9750    2.4701    1.3824 H   0  0  0  0  0  0  0  0  0  0  0  0
    1.9006    1.9701    2.7772 H   0  0  0  0  0  0  0  0  0  0  0  0
    4.3865    1.0172   -2.4152 H   0  0  0  0  0  0  0  0  0  0  0  0
    4.1998    2.5411   -2.9727 H   0  0  0  0  0  0  0  0  0  0  0  0
   -3.4554    2.6452    2.2455 H   0  0  0  0  0  0  0  0  0  0  0  0
   -3.7745    1.6735    3.6925 H   0  0  0  0  0  0  0  0  0  0  0  0
   -5.1413    0.9307   -2.2916 H   0  0  0  0  0  0  0  0  0  0  0  0
   -6.6304    1.1424   -1.6551 H   0  0  0  0  0  0  0  0  0  0  0  0
    0.5802    3.2730   -1.8113 H   0  0  0  0  0  0  0  0  0  0  0  0
    4.8981    4.5680    0.5825 H   0  0  0  0  0  0  0  0  0  0  0  0
   -6.8558   -1.2844    2.1135 H   0  0  0  0  0  0  0  0  0  0  0  0
    0.2850    1.1501   -4.7740 H   0  0  0  0  0  0  0  0  0  0  0  0
   -6.7382    2.4042    1.2445 H   0  0  0  0  0  0  0  0  0  0  0  0
    0.6955    3.9416    3.2188 H   0  0  0  0  0  0  0  0  0  0  0  0
    2.2895    4.2801    3.2794 H   0  0  0  0  0  0  0  0  0  0  0  0
   -1.4726    2.0311    3.3676 H   0  0  0  0  0  0  0  0  0  0  0  0
   -1.7834    0.4407    3.1805 H   0  0  0  0  0  0  0  0  0  0  0  0
  1 20  1  0  0  0  0
  1 26  1  0  0  0  0
  2 21  1  0  0  0  0
  2 30  1  0  0  0  0
  3 26  1  0  0  0  0
  3 29  1  0  0  0  0
  4 27  1  0  0  0  0
  4 33  1  0  0  0  0
  5 23  1  0  0  0  0
  5 66  1  0  0  0  0
  6 30  1  0  0  0  0
  6 35  1  0  0  0  0
  7 33  1  0  0  0  0
  7 40  1  0  0  0  0
  8 28  1  0  0  0  0
  8 71  1  0  0  0  0
  9 32  1  0  0  0  0
  9 80  1  0  0  0  0
 10 34  1  0  0  0  0
 10 81  1  0  0  0  0
 11 37  1  0  0  0  0
 11 82  1  0  0  0  0
 12 38  1  0  0  0  0
 12 83  1  0  0  0  0
 13 39  1  0  0  0  0
 13 84  1  0  0  0  0
 14 22  1  0  0  0  0
 14 58  1  0  0  0  0
 14 59  1  0  0  0  0
 15 24  1  0  0  0  0
 15 62  1  0  0  0  0
 15 63  1  0  0  0  0
 16 31  1  0  0  0  0
 16 74  1  0  0  0  0
 16 75  1  0  0  0  0
 17 36  1  0  0  0  0
 17 78  1  0  0  0  0
 17 79  1  0  0  0  0
 18 41  1  0  0  0  0
 18 85  1  0  0  0  0
 18 86  1  0  0  0  0
 19 42  1  0  0  0  0
 19 87  1  0  0  0  0
 19 88  1  0  0  0  0
 20 21  1  0  0  0  0
 20 23  1  0  0  0  0
 20 43  1  0  0  0  0
 21 22  1  0  0  0  0
 21 44  1  0  0  0  0
 22 25  1  0  0  0  0
 22 45  1  0  0  0  0
 23 24  1  0  0  0  0
 23 46  1  0  0  0  0
 24 25  1  0  0  0  0
 24 47  1  0  0  0  0
 25 48  1  0  0  0  0
 25 49  1  0  0  0  0
 26 28  1  0  0  0  0
 26 50  1  0  0  0  0
 27 28  1  0  0  0  0
 27 29  1  0  0  0  0
 27 51  1  0  0  0  0
 28 52  1  0  0  0  0
 29 38  1  0  0  0  0
 29 53  1  0  0  0  0
 30 31  1  0  0  0  0
 30 54  1  0  0  0  0
 31 32  1  0  0  0  0
 31 55  1  0  0  0  0
 32 34  1  0  0  0  0
 32 56  1  0  0  0  0
 33 36  1  0  0  0  0
 33 57  1  0  0  0  0
 34 35  1  0  0  0  0
 34 60  1  0  0  0  0
 35 41  1  0  0  0  0
 35 61  1  0  0  0  0
 36 37  1  0  0  0  0
 36 64  1  0  0  0  0
 37 39  1  0  0  0  0
 37 65  1  0  0  0  0
 38 67  1  0  0  0  0
 38 68  1  0  0  0  0
 39 40  1  0  0  0  0
 39 69  1  0  0  0  0
 40 42  1  0  0  0  0
 40 70  1  0  0  0  0
 41 72  1  0  0  0  0
 41 73  1  0  0  0  0
 42 76  1  0  0  0  0
 42 77  1  0  0  0  0
M  END
> <DATABASE_ID>
DB00452

> <DATABASE_NAME>
drugbank

> <ORIGINAL_SOURCE>
PUBCHEM

> <ORIGINAL_SOURCE_URL>
https://pubchem.ncbi.nlm.nih.gov/rest/pug/compound/inchikey/PGBHMTALBVVCIT-VCIWKGPPSA-N/SDF?record_type=3d

> <SMILES>
NC[C@@H]1O[C@H](O[C@@H]2[C@@H](CO)O[C@@H](O[C@@H]3[C@@H](O)[C@H](N)C[C@H](N)[C@H]3O[C@H]3O[C@H](CN)[C@@H](O)[C@H](O)[C@H]3N)[C@@H]2O)[C@H](N)[C@@H](O)[C@@H]1O

> <INCHI_IDENTIFIER>
InChI=1S/C23H46N6O13/c24-2-7-13(32)15(34)10(28)21(37-7)40-18-6(27)1-5(26)12(31)20(18)42-23-17(36)19(9(4-30)39-23)41-22-11(29)16(35)14(33)8(3-25)38-22/h5-23,30-36H,1-4,24-29H2/t5-,6+,7-,8+,9-,10-,11-,12+,13-,14-,15-,16-,17-,18-,19-,20-,21-,22-,23+/m1/s1

> <INCHI_KEY>
PGBHMTALBVVCIT-VCIWKGPPSA-N

> <FORMULA>
C23H46N6O13

> <MOLECULAR_WEIGHT>
614.6437

> <EXACT_MASS>
614.312285588

> <JCHEM_ACCEPTOR_COUNT>
19

> <JCHEM_ATOM_COUNT>
88

> <JCHEM_AVERAGE_NEUTRAL_MICROSPECIES_CHARGE>
6.001604124870615

> <JCHEM_AVERAGE_POLARIZABILITY>
59.47490387620957

> <JCHEM_BIOAVAILABILITY>
0

> <JCHEM_DONOR_COUNT>
13

> <JCHEM_FORMAL_CHARGE>
0

> <JCHEM_GHOSE_FILTER>
0

> <JCHEM_IUPAC>
(2R,3S,4R,5R,6R)-5-amino-2-(aminomethyl)-6-{[(1R,2R,3S,4R,6S)-4,6-diamino-2-{[(2S,3R,4S,5R)-4-{[(2R,3R,4R,5S,6S)-3-amino-6-(aminomethyl)-4,5-dihydroxyoxan-2-yl]oxy}-3-hydroxy-5-(hydroxymethyl)oxolan-2-yl]oxy}-3-hydroxycyclohexyl]oxy}oxane-3,4-diol

> <ALOGPS_LOGP>
-2.81

> <JCHEM_LOGP>
-8.415177746000001

> <ALOGPS_LOGS>
-0.98

> <JCHEM_MDDR_LIKE_RULE>
1

> <JCHEM_NEUTRAL_CHARGE>
6

> <JCHEM_NUMBER_OF_RINGS>
4

> <JCHEM_PHYSIOLOGICAL_CHARGE>
6

> <JCHEM_PKA>
13.193857691471669

> <JCHEM_PKA_STRONGEST_ACIDIC>
12.290324665825167

> <JCHEM_PKA_STRONGEST_BASIC>
9.734546801603596

> <JCHEM_POLAR_SURFACE_AREA>
353.10999999999996

> <JCHEM_REFRACTIVITY>
135.9002999999999

> <JCHEM_ROTATABLE_BOND_COUNT>
9

> <JCHEM_RULE_OF_FIVE>
0

> <ALOGPS_SOLUBILITY>
6.47e+01 g/l

> <JCHEM_TRADITIONAL_IUPAC>
(2R,3S,4R,5R,6R)-5-amino-2-(aminomethyl)-6-{[(1R,2R,3S,4R,6S)-4,6-diamino-2-{[(2S,3R,4S,5R)-4-{[(2R,3R,4R,5S,6S)-3-amino-6-(aminomethyl)-4,5-dihydroxyoxan-2-yl]oxy}-3-hydroxy-5-(hydroxymethyl)oxolan-2-yl]oxy}-3-hydroxycyclohexyl]oxy}oxane-3,4-diol

> <JCHEM_VEBER_RULE>
0

$$$$
37768
  -OEChem-09291811473D

 83 85  0     1  0  0  0  0  0999 V2000
   -0.2481   -1.5435   -0.0318 O   0  0  0  0  0  0  0  0  0  0  0  0
   -1.0143    1.2262   -0.0189 O   0  0  0  0  0  0  0  0  0  0  0  0
    1.6187    0.4791    2.3746 O   0  0  0  0  0  0  0  0  0  0  0  0
   -0.7154   -3.6608    0.9232 O   0  0  0  0  0  0  0  0  0  0  0  0
   -1.9669    3.0045    1.2262 O   0  0  0  0  0  0  0  0  0  0  0  0
   -0.3871   -2.6479   -2.5716 O   0  0  0  0  0  0  0  0  0  0  0  0
   -3.5554    0.0746   -0.3225 O   0  0  0  0  0  0  0  0  0  0  0  0
   -4.3071   -3.3663    0.1595 O   0  0  0  0  0  0  0  0  0  0  0  0
   -5.0786    2.2906   -1.3926 O   0  0  0  0  0  0  0  0  0  0  0  0
   -3.4770    4.6550   -1.7036 O   0  0  0  0  0  0  0  0  0  0  0  0
    4.4438   -1.5561   -1.7036 O   0  0  0  0  0  0  0  0  0  0  0  0
   -1.6527   -3.7443    3.4833 O   0  0  0  0  0  0  0  0  0  0  0  0
    6.8243   -1.3551   -0.5031 O   0  0  0  0  0  0  0  0  0  0  0  0
    3.3036   -0.6804    0.1187 N   0  0  0  0  0  0  0  0  0  0  0  0
    2.5248    2.2729    0.1922 N   0  0  0  0  0  0  0  0  0  0  0  0
   -3.1638   -3.6565   -2.4905 N   0  0  0  0  0  0  0  0  0  0  0  0
   -0.5372    5.4195    1.3645 N   0  0  0  0  0  0  0  0  0  0  0  0
    6.2986    2.8934   -0.1960 N   0  0  0  0  0  0  0  0  0  0  0  0
    0.9202   -1.0504    0.6256 C   0  0  1  0  0  0  0  0  0  0  0  0
    0.2427    1.4238    0.6315 C   0  0  1  0  0  0  0  0  0  0  0  0
    1.9786   -0.7591   -0.4492 C   0  0  1  0  0  0  0  0  0  0  0  0
    0.5548    0.1783    1.4760 C   0  0  2  0  0  0  0  0  0  0  0  0
    1.3141    1.7359   -0.4302 C   0  0  2  0  0  0  0  0  0  0  0  0
    1.6412    0.4919   -1.2745 C   0  0  0  0  0  0  0  0  0  0  0  0
   -0.1857   -2.9586   -0.2015 C   0  0  1  0  0  0  0  0  0  0  0  0
   -2.0964    1.6431    0.8116 C   0  0  1  0  0  0  0  0  0  0  0  0
   -0.9272   -3.3750   -1.4736 C   0  0  1  0  0  0  0  0  0  0  0  0
   -2.4343   -3.1227   -1.3342 C   0  0  2  0  0  0  0  0  0  0  0  0
   -3.4606    1.4101    0.1602 C   0  0  1  0  0  0  0  0  0  0  0  0
   -2.9594   -3.7821   -0.0481 C   0  0  1  0  0  0  0  0  0  0  0  0
   -3.7099    2.3830   -0.9905 C   0  0  2  0  0  0  0  0  0  0  0  0
   -2.1001   -3.3866    1.1635 C   0  0  1  0  0  0  0  0  0  0  0  0
   -3.4360    3.8217   -0.5476 C   0  0  1  0  0  0  0  0  0  0  0  0
   -2.0719    3.9387    0.1457 C   0  0  1  0  0  0  0  0  0  0  0  0
    4.4357   -1.0908   -0.5659 C   0  0  0  0  0  0  0  0  0  0  0  0
   -2.4938   -4.1564    2.4216 C   0  0  0  0  0  0  0  0  0  0  0  0
   -1.8458    5.3284    0.7348 C   0  0  0  0  0  0  0  0  0  0  0  0
    5.7132   -0.8806    0.2389 C   0  0  2  0  0  0  0  0  0  0  0  0
    5.9422    0.5901    0.6082 C   0  0  0  0  0  0  0  0  0  0  0  0
    6.0680    1.5124   -0.6101 C   0  0  0  0  0  0  0  0  0  0  0  0
    1.3060   -1.8138    1.3174 H   0  0  0  0  0  0  0  0  0  0  0  0
    0.2011    2.2954    1.2966 H   0  0  0  0  0  0  0  0  0  0  0  0
    2.0009   -1.5892   -1.1650 H   0  0  0  0  0  0  0  0  0  0  0  0
   -0.3098   -0.0930    2.0906 H   0  0  0  0  0  0  0  0  0  0  0  0
    0.9222    2.5018   -1.1112 H   0  0  0  0  0  0  0  0  0  0  0  0
    0.7665    0.2667   -1.8997 H   0  0  0  0  0  0  0  0  0  0  0  0
    2.4566    0.7186   -1.9739 H   0  0  0  0  0  0  0  0  0  0  0  0
    0.8563   -3.2821   -0.3155 H   0  0  0  0  0  0  0  0  0  0  0  0
   -2.0762    1.0334    1.7214 H   0  0  0  0  0  0  0  0  0  0  0  0
    3.3970   -0.2830    1.0483 H   0  0  0  0  0  0  0  0  0  0  0  0
   -0.7599   -4.4451   -1.6543 H   0  0  0  0  0  0  0  0  0  0  0  0
   -2.6251   -2.0454   -1.3213 H   0  0  0  0  0  0  0  0  0  0  0  0
   -4.2503    1.5445    0.9105 H   0  0  0  0  0  0  0  0  0  0  0  0
    2.2996    3.1249    0.7040 H   0  0  0  0  0  0  0  0  0  0  0  0
    3.1901    2.5414   -0.5312 H   0  0  0  0  0  0  0  0  0  0  0  0
   -2.9521   -4.8736   -0.1628 H   0  0  0  0  0  0  0  0  0  0  0  0
   -3.1116    2.1137   -1.8688 H   0  0  0  0  0  0  0  0  0  0  0  0
   -2.2084   -2.3168    1.3844 H   0  0  0  0  0  0  0  0  0  0  0  0
    1.3290    1.2160    2.9388 H   0  0  0  0  0  0  0  0  0  0  0  0
   -4.2341    4.1580    0.1255 H   0  0  0  0  0  0  0  0  0  0  0  0
   -1.2718    3.7447   -0.5813 H   0  0  0  0  0  0  0  0  0  0  0  0
   -3.5346   -3.9635    2.6986 H   0  0  0  0  0  0  0  0  0  0  0  0
   -2.3500   -5.2328    2.2804 H   0  0  0  0  0  0  0  0  0  0  0  0
   -1.9200    6.0939   -0.0444 H   0  0  0  0  0  0  0  0  0  0  0  0
   -2.6075    5.5441    1.4931 H   0  0  0  0  0  0  0  0  0  0  0  0
   -4.1545   -3.4350   -2.3998 H   0  0  0  0  0  0  0  0  0  0  0  0
   -2.8396   -3.1950   -3.3394 H   0  0  0  0  0  0  0  0  0  0  0  0
    5.6351   -1.4860    1.1497 H   0  0  0  0  0  0  0  0  0  0  0  0
    0.5562   -2.8739   -2.6384 H   0  0  0  0  0  0  0  0  0  0  0  0
   -3.3704   -0.5141    0.4283 H   0  0  0  0  0  0  0  0  0  0  0  0
   -4.3113   -2.4018    0.2774 H   0  0  0  0  0  0  0  0  0  0  0  0
   -5.6353    2.5131   -0.6270 H   0  0  0  0  0  0  0  0  0  0  0  0
   -2.7520    4.3864   -2.2934 H   0  0  0  0  0  0  0  0  0  0  0  0
    6.8726    0.6593    1.1877 H   0  0  0  0  0  0  0  0  0  0  0  0
    5.1400    0.9504    1.2624 H   0  0  0  0  0  0  0  0  0  0  0  0
   -0.4631    4.7238    2.1057 H   0  0  0  0  0  0  0  0  0  0  0  0
   -0.4383    6.3289    1.8135 H   0  0  0  0  0  0  0  0  0  0  0  0
   -1.9182   -4.2477    4.2718 H   0  0  0  0  0  0  0  0  0  0  0  0
    7.5985   -1.3396    0.0851 H   0  0  0  0  0  0  0  0  0  0  0  0
    5.1634    1.4714   -1.2245 H   0  0  0  0  0  0  0  0  0  0  0  0
    6.9062    1.1938   -1.2386 H   0  0  0  0  0  0  0  0  0  0  0  0
    6.3280    3.4922   -1.0202 H   0  0  0  0  0  0  0  0  0  0  0  0
    5.5117    3.2180    0.3648 H   0  0  0  0  0  0  0  0  0  0  0  0
  1 19  1  0  0  0  0
  1 25  1  0  0  0  0
  2 20  1  0  0  0  0
  2 26  1  0  0  0  0
  3 22  1  0  0  0  0
  3 59  1  0  0  0  0
  4 25  1  0  0  0  0
  4 32  1  0  0  0  0
  5 26  1  0  0  0  0
  5 34  1  0  0  0  0
  6 27  1  0  0  0  0
  6 69  1  0  0  0  0
  7 29  1  0  0  0  0
  7 70  1  0  0  0  0
  8 30  1  0  0  0  0
  8 71  1  0  0  0  0
  9 31  1  0  0  0  0
  9 72  1  0  0  0  0
 10 33  1  0  0  0  0
 10 73  1  0  0  0  0
 11 35  2  0  0  0  0
 12 36  1  0  0  0  0
 12 78  1  0  0  0  0
 13 38  1  0  0  0  0
 13 79  1  0  0  0  0
 14 21  1  0  0  0  0
 14 35  1  0  0  0  0
 14 50  1  0  0  0  0
 15 23  1  0  0  0  0
 15 54  1  0  0  0  0
 15 55  1  0  0  0  0
 16 28  1  0  0  0  0
 16 66  1  0  0  0  0
 16 67  1  0  0  0  0
 17 37  1  0  0  0  0
 17 76  1  0  0  0  0
 17 77  1  0  0  0  0
 18 40  1  0  0  0  0
 18 82  1  0  0  0  0
 18 83  1  0  0  0  0
 19 21  1  0  0  0  0
 19 22  1  0  0  0  0
 19 41  1  0  0  0  0
 20 22  1  0  0  0  0
 20 23  1  0  0  0  0
 20 42  1  0  0  0  0
 21 24  1  0  0  0  0
 21 43  1  0  0  0  0
 22 44  1  0  0  0  0
 23 24  1  0  0  0  0
 23 45  1  0  0  0  0
 24 46  1  0  0  0  0
 24 47  1  0  0  0  0
 25 27  1  0  0  0  0
 25 48  1  0  0  0  0
 26 29  1  0  0  0  0
 26 49  1  0  0  0  0
 27 28  1  0  0  0  0
 27 51  1  0  0  0  0
 28 30  1  0  0  0  0
 28 52  1  0  0  0  0
 29 31  1  0  0  0  0
 29 53  1  0  0  0  0
 30 32  1  0  0  0  0
 30 56  1  0  0  0  0
 31 33  1  0  0  0  0
 31 57  1  0  0  0  0
 32 36  1  0  0  0  0
 32 58  1  0  0  0  0
 33 34  1  0  0  0  0
 33 60  1  0  0  0  0
 34 37  1  0  0  0  0
 34 61  1  0  0  0  0
 35 38  1  0  0  0  0
 36 62  1  0  0  0  0
 36 63  1  0  0  0  0
 37 64  1  0  0  0  0
 37 65  1  0  0  0  0
 38 39  1  0  0  0  0
 38 68  1  0  0  0  0
 39 40  1  0  0  0  0
 39 74  1  0  0  0  0
 39 75  1  0  0  0  0
 40 80  1  0  0  0  0
 40 81  1  0  0  0  0
M  END
> <DATABASE_ID>
DB00479

> <DATABASE_NAME>
drugbank

> <ORIGINAL_SOURCE>
PUBCHEM

> <ORIGINAL_SOURCE_URL>
https://pubchem.ncbi.nlm.nih.gov/rest/pug/compound/inchikey/LKCWBDHBTVXHDL-RMDFUYIESA-N/SDF?record_type=3d

> <SMILES>
NCC[C@H](O)C(=O)N[C@@H]1C[C@H](N)[C@@H](O[C@H]2O[C@H](CN)[C@@H](O)[C@H](O)[C@H]2O)[C@H](O)[C@H]1O[C@H]1O[C@H](CO)[C@@H](O)[C@H](N)[C@H]1O

> <INCHI_IDENTIFIER>
InChI=1S/C22H43N5O13/c23-2-1-8(29)20(36)27-7-3-6(25)18(39-22-16(34)15(33)13(31)9(4-24)37-22)17(35)19(7)40-21-14(32)11(26)12(30)10(5-28)38-21/h6-19,21-22,28-35H,1-5,23-26H2,(H,27,36)/t6-,7+,8-,9+,10+,11-,12+,13+,14+,15-,16+,17-,18+,19-,21+,22+/m0/s1

> <INCHI_KEY>
LKCWBDHBTVXHDL-RMDFUYIESA-N

> <FORMULA>
C22H43N5O13

> <MOLECULAR_WEIGHT>
585.6025

> <EXACT_MASS>
585.285736487

> <JCHEM_ACCEPTOR_COUNT>
17

> <JCHEM_ATOM_COUNT>
83

> <JCHEM_AVERAGE_POLARIZABILITY>
58.060396682395805

> <JCHEM_BIOAVAILABILITY>
0

> <JCHEM_DONOR_COUNT>
13

> <JCHEM_FORMAL_CHARGE>
0

> <JCHEM_GHOSE_FILTER>
0

> <JCHEM_IUPAC>
(2S)-4-amino-N-[(1R,2S,3S,4R,5S)-5-amino-2-{[(2S,3R,4S,5S,6R)-4-amino-3,5-dihydroxy-6-(hydroxymethyl)oxan-2-yl]oxy}-4-{[(2R,3R,4S,5S,6R)-6-(aminomethyl)-3,4,5-trihydroxyoxan-2-yl]oxy}-3-hydroxycyclohexyl]-2-hydroxybutanamide

> <ALOGPS_LOGP>
-3.22

> <JCHEM_LOGP>
-8.584382674

> <ALOGPS_LOGS>
-1.07

> <JCHEM_MDDR_LIKE_RULE>
1

> <JCHEM_NUMBER_OF_RINGS>
3

> <JCHEM_PHYSIOLOGICAL_CHARGE>
4

> <JCHEM_PKA>
12.70598939175315

> <JCHEM_PKA_STRONGEST_ACIDIC>
12.104233562206012

> <JCHEM_PKA_STRONGEST_BASIC>
9.794402745081491

> <JCHEM_POLAR_SURFACE_AREA>
331.93999999999994

> <JCHEM_REFRACTIVITY>
129.84099999999992

> <JCHEM_ROTATABLE_BOND_COUNT>
10

> <JCHEM_RULE_OF_FIVE>
0

> <ALOGPS_SOLUBILITY>
4.97e+01 g/l

> <JCHEM_TRADITIONAL_IUPAC>
amikacin

> <JCHEM_VEBER_RULE>
0

$$$$

  Mrv1909 10301918402D          

 44 47  0  0  0  0            999 V2000
    3.2354    1.0389    0.0000 C   0  0  0  0  0  0  0  0  0  0  0  0
    3.9383    0.6112    0.0000 C   0  0  0  0  0  0  0  0  0  0  0  0
    3.9383   -0.2138    0.0000 C   0  0  0  0  0  0  0  0  0  0  0  0
    3.2354   -0.6112    0.0000 C   0  0  2  0  0  0  0  0  0  0  0  0
    2.5021   -0.2138    0.0000 C   0  0  2  0  0  0  0  0  0  0  0  0
    1.7992   -0.6112    0.0000 C   0  0  0  0  0  0  0  0  0  0  0  0
    1.0658   -0.2138    0.0000 C   0  0  2  0  0  0  0  0  0  0  0  0
    0.3629   -0.6112    0.0000 C   0  0  0  0  0  0  0  0  0  0  0  0
   -0.3703   -0.2138    0.0000 C   0  0  0  0  0  0  0  0  0  0  0  0
   -1.0732   -0.6112    0.0000 C   0  0  0  0  0  0  0  0  0  0  0  0
   -1.8065   -0.2138    0.0000 C   0  0  0  0  0  0  0  0  0  0  0  0
   -1.8065    0.6112    0.0000 C   0  0  0  0  0  0  0  0  0  0  0  0
   -1.0732    1.0389    0.0000 C   0  0  0  0  0  0  0  0  0  0  0  0
   -0.3703    0.6112    0.0000 C   0  0  0  0  0  0  0  0  0  0  0  0
    0.3629    1.0389    0.0000 C   0  0  0  0  0  0  0  0  0  0  0  0
    1.0658    0.6112    0.0000 C   0  0  0  0  0  0  0  0  0  0  0  0
    1.7992    1.0389    0.0000 C   0  0  0  0  0  0  0  0  0  0  0  0
    2.5021    0.6112    0.0000 C   0  0  2  0  0  0  0  0  0  0  0  0
    4.6716    1.0389    0.0000 C   0  0  0  0  0  0  0  0  0  0  0  0
    4.6716    1.8640    0.0000 O   0  0  0  0  0  0  0  0  0  0  0  0
    5.3744    0.6112    0.0000 N   0  0  0  0  0  0  0  0  0  0  0  0
    0.3629    1.8640    0.0000 O   0  0  0  0  0  0  0  0  0  0  0  0
    3.2354    1.8640    0.0000 O   0  0  0  0  0  0  0  0  0  0  0  0
    2.5021    1.4362    0.0000 O   0  0  0  0  0  0  0  0  0  0  0  0
    1.7992    1.8640    0.0000 O   0  0  0  0  0  0  0  0  0  0  0  0
   -1.0732    1.8640    0.0000 O   0  0  0  0  0  0  0  0  0  0  0  0
    4.6716   -0.6112    0.0000 O   0  0  0  0  0  0  0  0  0  0  0  0
   -2.5094    1.0389    0.0000 N   0  0  0  0  0  0  0  0  0  0  0  0
   -1.0732   -1.4669    0.0000 N   0  0  0  0  0  0  0  0  0  0  0  0
   -1.8065   -1.8640    0.0000 C   0  0  0  0  0  0  0  0  0  0  0  0
   -0.3703   -1.8640    0.0000 C   0  0  0  0  0  0  0  0  0  0  0  0
    3.2354   -1.4669    0.0000 N   0  0  0  0  0  0  0  0  0  0  0  0
    3.9383   -1.8640    0.0000 C   0  0  0  0  0  0  0  0  0  0  0  0
    2.5021   -1.8640    0.0000 C   0  0  0  0  0  0  0  0  0  0  0  0
    2.5021   -1.0389    0.0000 H   0  0  0  0  0  0  0  0  0  0  0  0
    1.0658   -1.0389    0.0000 H   0  0  0  0  0  0  0  0  0  0  0  0
   -3.2285    0.6250    0.0000 C   0  0  0  0  0  0  0  0  0  0  0  0
   -3.9425    1.0386    0.0000 C   0  0  0  0  0  0  0  0  0  0  0  0
   -3.2297   -0.2000    0.0000 O   0  0  0  0  0  0  0  0  0  0  0  0
   -4.6600    0.6250    0.0000 N   0  0  0  0  0  0  0  0  0  0  0  0
   -4.6600   -0.2000    0.0000 C   0  0  0  0  0  0  0  0  0  0  0  0
   -5.3744   -0.6125    0.0000 C   0  0  0  0  0  0  0  0  0  0  0  0
   -3.9455   -0.6125    0.0000 C   0  0  0  0  0  0  0  0  0  0  0  0
   -4.6600   -1.0250    0.0000 C   0  0  0  0  0  0  0  0  0  0  0  0
  2  1  1  0  0  0  0
 18  1  1  0  0  0  0
 23  1  2  0  0  0  0
  3  2  2  0  0  0  0
 19  2  1  0  0  0  0
  4  3  1  0  0  0  0
 27  3  1  0  0  0  0
  5  4  1  0  0  0  0
  4 32  1  1  0  0  0
  6  5  1  0  0  0  0
 18  5  1  0  0  0  0
  5 35  1  1  0  0  0
  7  6  1  0  0  0  0
  8  7  1  0  0  0  0
 16  7  1  0  0  0  0
  7 36  1  1  0  0  0
  9  8  1  0  0  0  0
 10  9  1  0  0  0  0
 14  9  2  0  0  0  0
 11 10  2  0  0  0  0
 29 10  1  0  0  0  0
 12 11  1  0  0  0  0
 13 12  2  0  0  0  0
 28 12  1  0  0  0  0
 14 13  1  0  0  0  0
 26 13  1  0  0  0  0
 15 14  1  0  0  0  0
 16 15  1  0  0  0  0
 22 15  2  0  0  0  0
 17 16  2  0  0  0  0
 18 17  1  0  0  0  0
 25 17  1  0  0  0  0
 18 24  1  1  0  0  0
 20 19  2  0  0  0  0
 21 19  1  0  0  0  0
 30 29  1  0  0  0  0
 31 29  1  0  0  0  0
 33 32  1  0  0  0  0
 34 32  1  0  0  0  0
 28 37  1  0  0  0  0
 37 38  1  0  0  0  0
 37 39  2  0  0  0  0
 38 40  1  0  0  0  0
 40 41  1  0  0  0  0
 41 42  1  0  0  0  0
 41 43  1  0  0  0  0
 41 44  1  0  0  0  0
M  END
> <DATABASE_ID>
DB00560

> <DATABASE_NAME>
drugbank

> <SMILES>
[H][C@@]12CC3=C(C(O)=C(NC(=O)CNC(C)(C)C)C=C3N(C)C)C(=O)C1=C(O)[C@]1(O)C(=O)C(C(N)=O)=C(O)[C@@H](N(C)C)[C@]1([H])C2

> <INCHI_IDENTIFIER>
InChI=1S/C29H39N5O8/c1-28(2,3)31-11-17(35)32-15-10-16(33(4)5)13-8-12-9-14-21(34(6)7)24(38)20(27(30)41)26(40)29(14,42)25(39)18(12)23(37)19(13)22(15)36/h10,12,14,21,31,36,38-39,42H,8-9,11H2,1-7H3,(H2,30,41)(H,32,35)/t12-,14-,21-,29-/m0/s1

> <INCHI_KEY>
FPZLLRFZJZRHSY-HJYUBDRYSA-N

> <FORMULA>
C29H39N5O8

> <MOLECULAR_WEIGHT>
585.6487

> <EXACT_MASS>
585.279863249

> <JCHEM_ACCEPTOR_COUNT>
11

> <JCHEM_ATOM_COUNT>
81

> <JCHEM_AVERAGE_POLARIZABILITY>
61.56323398222355

> <JCHEM_BIOAVAILABILITY>
0

> <JCHEM_DONOR_COUNT>
7

> <JCHEM_FORMAL_CHARGE>
0

> <JCHEM_GHOSE_FILTER>
0

> <JCHEM_IUPAC>
(4S,4aS,5aR,12aS)-9-[2-(tert-butylamino)acetamido]-4,7-bis(dimethylamino)-3,10,12,12a-tetrahydroxy-1,11-dioxo-1,4,4a,5,5a,6,11,12a-octahydrotetracene-2-carboxamide

> <ALOGPS_LOGP>
0.66

> <JCHEM_LOGP>
-3.8716469711281114

> <ALOGPS_LOGS>
-3.11

> <JCHEM_MDDR_LIKE_RULE>
1

> <JCHEM_NUMBER_OF_RINGS>
4

> <JCHEM_PHYSIOLOGICAL_CHARGE>
1

> <JCHEM_PKA>
7.351721087130572

> <JCHEM_PKA_STRONGEST_ACIDIC>
3.168151000454865

> <JCHEM_PKA_STRONGEST_BASIC>
8.96576120109409

> <JCHEM_POLAR_SURFACE_AREA>
205.75999999999996

> <JCHEM_REFRACTIVITY>
159.34309999999994

> <JCHEM_ROTATABLE_BOND_COUNT>
7

> <JCHEM_RULE_OF_FIVE>
0

> <ALOGPS_SOLUBILITY>
4.50e-01 g/l

> <JCHEM_TRADITIONAL_IUPAC>
tigecycline

> <JCHEM_VEBER_RULE>
0

> <DRUGBANK_ID>
DB00560

> <SECONDARY_ACCESSION_NUMBERS>
APRD01307

> <DRUG_GROUPS>
approved

> <GENERIC_NAME>
Tigecycline

> <SYNONYMS>
(4S,4aS,5aR,12aS)-9-(2-(tert-butylamino)acetamido)-4,7-bis(dimethylamino)-1,4,4a,5,5a,6,11,12a-octahydro-3,10,12,12a-tetrahydroxy-1,11-dioxo-2-naphthacenecarboxamide; Tigeciclina; Tigecycline; Tigecyclinum

> <PRODUCTS>
Tigecycline; Tigecycline for Injection; Tygacil

$$$$
5328
  -OEChem-10051719183D

 27 28  0     0  0  0  0  0  0999 V2000
    0.4282    2.2166    0.1150 S   0  0  0  0  0  0  0  0  0  0  0  0
   -2.5733   -0.3326   -1.4850 S   0  0  0  0  0  0  0  0  0  0  0  0
    1.1936    3.1892   -0.6559 O   0  0  0  0  0  0  0  0  0  0  0  0
    0.0941    2.5246    1.5002 O   0  0  0  0  0  0  0  0  0  0  0  0
   -1.0123    1.8559   -0.7588 N   0  0  0  0  0  0  0  0  0  0  0  0
   -1.9298    0.3369    0.9034 N   0  0  0  0  0  0  0  0  0  0  0  0
    3.3852   -2.9402   -0.0293 N   0  0  0  0  0  0  0  0  0  0  0  0
   -2.7042   -0.8032    1.0303 N   0  0  0  0  0  0  0  0  0  0  0  0
    1.2962    0.7024    0.0726 C   0  0  0  0  0  0  0  0  0  0  0  0
    2.1816    0.4350   -0.9717 C   0  0  0  0  0  0  0  0  0  0  0  0
    1.1045   -0.2402    1.0829 C   0  0  0  0  0  0  0  0  0  0  0  0
    2.6833   -1.7172    0.0043 C   0  0  0  0  0  0  0  0  0  0  0  0
    2.8749   -0.7748   -1.0058 C   0  0  0  0  0  0  0  0  0  0  0  0
    1.7981   -1.4499    1.0487 C   0  0  0  0  0  0  0  0  0  0  0  0
   -1.7747    0.7033   -0.3607 C   0  0  0  0  0  0  0  0  0  0  0  0
   -3.1043   -1.2543   -0.1393 C   0  0  0  0  0  0  0  0  0  0  0  0
   -3.9412   -2.4518   -0.3509 C   0  0  0  0  0  0  0  0  0  0  0  0
   -1.0207    2.0591   -1.7658 H   0  0  0  0  0  0  0  0  0  0  0  0
    2.3412    1.1508   -1.7731 H   0  0  0  0  0  0  0  0  0  0  0  0
    0.4378   -0.0502    1.9185 H   0  0  0  0  0  0  0  0  0  0  0  0
    3.5609   -0.9721   -1.8257 H   0  0  0  0  0  0  0  0  0  0  0  0
    1.6434   -2.1746    1.8441 H   0  0  0  0  0  0  0  0  0  0  0  0
    4.0260   -3.1353   -0.7871 H   0  0  0  0  0  0  0  0  0  0  0  0
    3.2450   -3.6245    0.7020 H   0  0  0  0  0  0  0  0  0  0  0  0
   -4.8798   -2.1922   -0.8510 H   0  0  0  0  0  0  0  0  0  0  0  0
   -3.4157   -3.1963   -0.9576 H   0  0  0  0  0  0  0  0  0  0  0  0
   -4.1921   -2.9193    0.6068 H   0  0  0  0  0  0  0  0  0  0  0  0
  1  3  2  0  0  0  0
  1  4  2  0  0  0  0
  1  5  1  0  0  0  0
  1  9  1  0  0  0  0
  2 15  1  0  0  0  0
  2 16  1  0  0  0  0
  5 15  1  0  0  0  0
  5 18  1  0  0  0  0
  6  8  1  0  0  0  0
  6 15  2  0  0  0  0
  7 12  1  0  0  0  0
  7 23  1  0  0  0  0
  7 24  1  0  0  0  0
  8 16  2  0  0  0  0
  9 10  2  0  0  0  0
  9 11  1  0  0  0  0
 10 13  1  0  0  0  0
 10 19  1  0  0  0  0
 11 14  2  0  0  0  0
 11 20  1  0  0  0  0
 12 13  2  0  0  0  0
 12 14  1  0  0  0  0
 13 21  1  0  0  0  0
 14 22  1  0  0  0  0
 16 17  1  0  0  0  0
 17 25  1  0  0  0  0
 17 26  1  0  0  0  0
 17 27  1  0  0  0  0
M  END
> <DATABASE_ID>
DB00576

> <DATABASE_NAME>
drugbank

> <ORIGINAL_SOURCE>
PUBCHEM

> <ORIGINAL_SOURCE_URL>
https://pubchem.ncbi.nlm.nih.gov/rest/pug/compound/inchikey/VACCAVUAMIDAGB-UHFFFAOYSA-N/SDF?record_type=3d

> <SMILES>
CC1=NN=C(NS(=O)(=O)C2=CC=C(N)C=C2)S1

> <INCHI_IDENTIFIER>
InChI=1S/C9H10N4O2S2/c1-6-11-12-9(16-6)13-17(14,15)8-4-2-7(10)3-5-8/h2-5H,10H2,1H3,(H,12,13)

> <INCHI_KEY>
VACCAVUAMIDAGB-UHFFFAOYSA-N

> <FORMULA>
C9H10N4O2S2

> <MOLECULAR_WEIGHT>
270.331

> <EXACT_MASS>
270.024516964

> <JCHEM_ACCEPTOR_COUNT>
5

> <JCHEM_AVERAGE_POLARIZABILITY>
26.264209134273333

> <JCHEM_BIOAVAILABILITY>
1

> <JCHEM_DONOR_COUNT>
2

> <JCHEM_FORMAL_CHARGE>
0

> <JCHEM_GHOSE_FILTER>
1

> <JCHEM_IUPAC>
4-amino-N-(5-methyl-1,3,4-thiadiazol-2-yl)benzene-1-sulfonamide

> <ALOGPS_LOGP>
0.53

> <JCHEM_LOGP>
0.21434596466666644

> <ALOGPS_LOGS>
-2.65

> <JCHEM_MDDR_LIKE_RULE>
0

> <JCHEM_NUMBER_OF_RINGS>
2

> <JCHEM_PHYSIOLOGICAL_CHARGE>
-1

> <JCHEM_PKA_STRONGEST_ACIDIC>
6.707642187543112

> <JCHEM_PKA_STRONGEST_BASIC>
1.951757408153643

> <JCHEM_POLAR_SURFACE_AREA>
97.97

> <JCHEM_REFRACTIVITY>
66.8358

> <JCHEM_ROTATABLE_BOND_COUNT>
2

> <JCHEM_RULE_OF_FIVE>
1

> <ALOGPS_SOLUBILITY>
6.11e-01 g/l

> <JCHEM_TRADITIONAL_IUPAC>
sulfamethizole

> <JCHEM_VEBER_RULE>
0

$$$$
20824
  -OEChem-10051719183D

 44 46  0     1  0  0  0  0  0999 V2000
   -1.1450    1.0758    0.7395 S   0  0  0  0  0  0  0  0  0  0  0  0
   -2.4726   -2.5628   -1.3604 O   0  0  0  0  0  0  0  0  0  0  0  0
   -5.5579    1.0459   -1.0011 O   0  0  0  0  0  0  0  0  0  0  0  0
   -5.4510   -0.8213    0.3022 O   0  0  0  0  0  0  0  0  0  0  0  0
    1.5923   -1.0990    1.7172 O   0  0  0  0  0  0  0  0  0  0  0  0
    4.7506   -1.7202   -1.2384 O   0  0  0  0  0  0  0  0  0  0  0  0
    3.7995   -2.8330    0.4910 O   0  0  0  0  0  0  0  0  0  0  0  0
   -2.7977   -0.8603    0.2415 N   0  0  0  0  0  0  0  0  0  0  0  0
    0.2922   -1.4812   -0.1673 N   0  0  0  0  0  0  0  0  0  0  0  0
   -1.7075   -0.6068    1.1881 C   0  0  1  0  0  0  0  0  0  0  0  0
   -2.8666    1.5523    0.2115 C   0  0  0  0  0  0  0  0  0  0  0  0
   -3.4214    0.2621   -0.4296 C   0  0  2  0  0  0  0  0  0  0  0  0
   -0.9599   -1.7810    0.5415 C   0  0  1  0  0  0  0  0  0  0  0  0
   -2.1875   -1.9099   -0.3822 C   0  0  0  0  0  0  0  0  0  0  0  0
   -3.6292    2.0233    1.4574 C   0  0  0  0  0  0  0  0  0  0  0  0
   -2.7772    2.6884   -0.8089 C   0  0  0  0  0  0  0  0  0  0  0  0
   -4.9011    0.0773   -0.3171 C   0  0  0  0  0  0  0  0  0  0  0  0
    1.4785   -1.1611    0.4944 C   0  0  0  0  0  0  0  0  0  0  0  0
    2.6459   -0.8954   -0.4545 C   0  0  1  0  0  0  0  0  0  0  0  0
    3.1430    0.5331   -0.2948 C   0  0  0  0  0  0  0  0  0  0  0  0
    3.7692   -1.9142   -0.3172 C   0  0  0  0  0  0  0  0  0  0  0  0
    2.5864    1.5254   -1.0765 C   0  0  0  0  0  0  0  0  0  0  0  0
    4.1364    0.7956    0.6268 C   0  0  0  0  0  0  0  0  0  0  0  0
    3.0425    2.8356   -0.9304 C   0  0  0  0  0  0  0  0  0  0  0  0
    4.5926    2.1057    0.7731 C   0  0  0  0  0  0  0  0  0  0  0  0
    4.0456    3.1256   -0.0057 C   0  0  0  0  0  0  0  0  0  0  0  0
   -2.0091   -0.7460    2.2302 H   0  0  0  0  0  0  0  0  0  0  0  0
   -3.1553    0.1914   -1.4929 H   0  0  0  0  0  0  0  0  0  0  0  0
   -0.8467   -2.6518    1.1983 H   0  0  0  0  0  0  0  0  0  0  0  0
   -4.6328    2.3779    1.1978 H   0  0  0  0  0  0  0  0  0  0  0  0
   -3.7475    1.2243    2.1979 H   0  0  0  0  0  0  0  0  0  0  0  0
   -3.1176    2.8607    1.9469 H   0  0  0  0  0  0  0  0  0  0  0  0
   -2.2050    2.3947   -1.6966 H   0  0  0  0  0  0  0  0  0  0  0  0
   -3.7724    2.9943   -1.1490 H   0  0  0  0  0  0  0  0  0  0  0  0
   -2.2964    3.5759   -0.3807 H   0  0  0  0  0  0  0  0  0  0  0  0
    0.3024   -1.5073   -1.1840 H   0  0  0  0  0  0  0  0  0  0  0  0
    2.2914   -1.0243   -1.4873 H   0  0  0  0  0  0  0  0  0  0  0  0
   -6.5314    0.9427   -0.9387 H   0  0  0  0  0  0  0  0  0  0  0  0
    1.8032    1.3086   -1.7968 H   0  0  0  0  0  0  0  0  0  0  0  0
    4.5654    0.0218    1.2556 H   0  0  0  0  0  0  0  0  0  0  0  0
    2.6157    3.6299   -1.5357 H   0  0  0  0  0  0  0  0  0  0  0  0
    5.3707    2.3326    1.4960 H   0  0  0  0  0  0  0  0  0  0  0  0
    5.4646   -2.3880   -1.1571 H   0  0  0  0  0  0  0  0  0  0  0  0
    4.3998    4.1458    0.1091 H   0  0  0  0  0  0  0  0  0  0  0  0
  1 10  1  0  0  0  0
  1 11  1  0  0  0  0
  2 14  2  0  0  0  0
  3 17  1  0  0  0  0
  3 38  1  0  0  0  0
  4 17  2  0  0  0  0
  5 18  2  0  0  0  0
  6 21  1  0  0  0  0
  6 43  1  0  0  0  0
  7 21  2  0  0  0  0
  8 10  1  0  0  0  0
  8 12  1  0  0  0  0
  8 14  1  0  0  0  0
  9 13  1  0  0  0  0
  9 18  1  0  0  0  0
  9 36  1  0  0  0  0
 10 13  1  0  0  0  0
 10 27  1  0  0  0  0
 11 12  1  0  0  0  0
 11 15  1  0  0  0  0
 11 16  1  0  0  0  0
 12 17  1  0  0  0  0
 12 28  1  0  0  0  0
 13 14  1  0  0  0  0
 13 29  1  0  0  0  0
 15 30  1  0  0  0  0
 15 31  1  0  0  0  0
 15 32  1  0  0  0  0
 16 33  1  0  0  0  0
 16 34  1  0  0  0  0
 16 35  1  0  0  0  0
 18 19  1  0  0  0  0
 19 20  1  0  0  0  0
 19 21  1  0  0  0  0
 19 37  1  0  0  0  0
 20 22  2  0  0  0  0
 20 23  1  0  0  0  0
 22 24  1  0  0  0  0
 22 39  1  0  0  0  0
 23 25  2  0  0  0  0
 23 40  1  0  0  0  0
 24 26  2  0  0  0  0
 24 41  1  0  0  0  0
 25 26  1  0  0  0  0
 25 42  1  0  0  0  0
 26 44  1  0  0  0  0
M  END
> <DATABASE_ID>
DB00578

> <DATABASE_NAME>
drugbank

> <ORIGINAL_SOURCE>
PUBCHEM

> <ORIGINAL_SOURCE_URL>
https://pubchem.ncbi.nlm.nih.gov/rest/pug/compound/inchikey/FPPNZSSZRUTDAP-UWFZAAFLSA-N/SDF?record_type=3d

> <SMILES>
[H][C@]12SC(C)(C)[C@@H](N1C(=O)[C@H]2NC(=O)C(C(O)=O)C1=CC=CC=C1)C(O)=O

> <INCHI_IDENTIFIER>
InChI=1S/C17H18N2O6S/c1-17(2)11(16(24)25)19-13(21)10(14(19)26-17)18-12(20)9(15(22)23)8-6-4-3-5-7-8/h3-7,9-11,14H,1-2H3,(H,18,20)(H,22,23)(H,24,25)/t9?,10-,11+,14-/m1/s1

> <INCHI_KEY>
FPPNZSSZRUTDAP-UWFZAAFLSA-N

> <FORMULA>
C17H18N2O6S

> <MOLECULAR_WEIGHT>
378.4

> <EXACT_MASS>
378.088557008

> <JCHEM_ACCEPTOR_COUNT>
6

> <JCHEM_AVERAGE_POLARIZABILITY>
36.387179678679935

> <JCHEM_BIOAVAILABILITY>
1

> <JCHEM_DONOR_COUNT>
3

> <JCHEM_FORMAL_CHARGE>
0

> <JCHEM_GHOSE_FILTER>
1

> <JCHEM_IUPAC>
(2S,5R,6R)-6-(2-carboxy-2-phenylacetamido)-3,3-dimethyl-7-oxo-4-thia-1-azabicyclo[3.2.0]heptane-2-carboxylic acid

> <ALOGPS_LOGP>
1.13

> <JCHEM_LOGP>
0.8153568303333337

> <ALOGPS_LOGS>
-2.99

> <JCHEM_MDDR_LIKE_RULE>
0

> <JCHEM_NUMBER_OF_RINGS>
3

> <JCHEM_PHYSIOLOGICAL_CHARGE>
-2

> <JCHEM_PKA>
3.861609022252315

> <JCHEM_PKA_STRONGEST_ACIDIC>
3.1068085753126673

> <JCHEM_PKA_STRONGEST_BASIC>
-6.32383417433641

> <JCHEM_POLAR_SURFACE_AREA>
124.01

> <JCHEM_REFRACTIVITY>
90.81950000000002

> <JCHEM_ROTATABLE_BOND_COUNT>
5

> <JCHEM_RULE_OF_FIVE>
1

> <ALOGPS_SOLUBILITY>
3.90e-01 g/l

> <JCHEM_TRADITIONAL_IUPAC>
carbenicillin

> <JCHEM_VEBER_RULE>
0

$$$$

  Mrv1718012301821502D          

 35 38  0  0  0  0            999 V2000
    0.6948   -0.1983    0.0000 C   0  0  1  0  0  0  0  0  0  0  0  0
    0.7048    0.6038    0.0000 C   0  0  2  0  0  0  0  0  0  0  0  0
   -0.0398   -0.6034    0.0000 C   0  0  2  0  0  0  0  0  0  0  0  0
    1.4168   -0.6403    0.0000 C   0  0  1  0  0  0  0  0  0  0  0  0
   -0.0005    1.0216    0.0000 C   0  0  0  0  0  0  0  0  0  0  0  0
    1.4548    1.0458    0.0000 C   0  0  0  0  0  0  0  0  0  0  0  0
    0.7048    1.4289    0.0000 O   0  0  0  0  0  0  0  0  0  0  0  0
   -0.7495   -0.1971    0.0000 C   0  0  1  0  0  0  0  0  0  0  0  0
   -0.0398   -1.4283    0.0000 O   0  0  0  0  0  0  0  0  0  0  0  0
    2.1632   -0.2198    0.0000 C   0  0  0  0  0  0  0  0  0  0  0  0
    1.4168   -1.4652    0.0000 N   0  0  0  0  0  0  0  0  0  0  0  0
   -0.7425    0.6279    0.0000 C   0  0  0  0  0  0  0  0  0  0  0  0
   -0.0005    1.8465    0.0000 O   0  0  0  0  0  0  0  0  0  0  0  0
    2.1697    0.5922    0.0000 C   0  0  0  0  0  0  0  0  0  0  0  0
    1.4548    1.8708    0.0000 O   0  0  0  0  0  0  0  0  0  0  0  0
   -1.4708   -0.6022    0.0000 C   0  0  2  0  0  0  0  0  0  0  0  0
    2.8790   -0.6324    0.0000 O   0  0  0  0  0  0  0  0  0  0  0  0
    2.1245   -1.8729    0.0000 C   0  0  0  0  0  0  0  0  0  0  0  0
    0.6967   -1.8783    0.0000 C   0  0  0  0  0  0  0  0  0  0  0  0
   -1.4412    1.0533    0.0000 C   0  0  0  0  0  0  0  0  0  0  0  0
    2.8856    1.0048    0.0000 C   0  0  0  0  0  0  0  0  0  0  0  0
   -2.1746   -0.1843    0.0000 C   0  0  0  0  0  0  0  0  0  0  0  0
   -2.1066   -1.1256    0.0000 C   0  0  0  0  0  0  0  0  0  0  0  0
   -2.1746    0.6407    0.0000 C   0  0  0  0  0  0  0  0  0  0  0  0
   -1.4412    1.8783    0.0000 O   0  0  0  0  0  0  0  0  0  0  0  0
    3.6053    0.5878    0.0000 N   0  0  0  0  0  0  0  0  0  0  0  0
    2.8856    1.8250    0.0000 O   0  0  0  0  0  0  0  0  0  0  0  0
   -2.8910   -0.5852    0.0000 C   0  0  0  0  0  0  0  0  0  0  0  0
   -2.8594    1.0533    0.0000 C   0  0  0  0  0  0  0  0  0  0  0  0
   -3.6053   -0.1740    0.0000 C   0  0  0  0  0  0  0  0  0  0  0  0
   -3.6053    0.6523    0.0000 C   0  0  0  0  0  0  0  0  0  0  0  0
   -2.8594    1.8782    0.0000 O   0  0  0  0  0  0  0  0  0  0  0  0
    0.6948   -1.0228    0.0000 H   0  0  0  0  0  0  0  0  0  0  0  0
   -0.7495   -1.0221    0.0000 H   0  0  0  0  0  0  0  0  0  0  0  0
   -1.2603   -1.3979    0.0000 O   0  0  0  0  0  0  0  0  0  0  0  0
  1  2  1  0  0  0  0
  1  3  1  0  0  0  0
  1  4  1  0  0  0  0
  2  5  1  0  0  0  0
  2  6  1  0  0  0  0
  2  7  1  1  0  0  0
  3  8  1  0  0  0  0
  3  9  1  1  0  0  0
  4 10  1  0  0  0  0
  4 11  1  1  0  0  0
  5 12  2  0  0  0  0
  5 13  1  0  0  0  0
  6 14  1  0  0  0  0
  6 15  2  0  0  0  0
  8 16  1  0  0  0  0
 10 17  1  0  0  0  0
 11 18  1  0  0  0  0
 11 19  1  0  0  0  0
 12 20  1  0  0  0  0
 14 21  1  0  0  0  0
 16 22  1  0  0  0  0
 16 23  1  1  0  0  0
 20 24  1  0  0  0  0
 20 25  2  0  0  0  0
 21 26  1  0  0  0  0
 21 27  2  0  0  0  0
 22 28  1  0  0  0  0
 24 29  1  0  0  0  0
 28 30  2  0  0  0  0
 29 31  2  0  0  0  0
 29 32  1  0  0  0  0
  8 12  1  0  0  0  0
 10 14  2  0  0  0  0
 22 24  2  0  0  0  0
 30 31  1  0  0  0  0
  1 33  1  1  0  0  0
  8 34  1  1  0  0  0
 16 35  1  0  0  0  0
M  END
> <DATABASE_ID>
DB00595

> <DATABASE_NAME>
drugbank

> <SMILES>
[H][C@@]12[C@@H](O)[C@@]3([H])C(C(=O)C4=C(C=CC=C4O)[C@@]3(C)O)=C(O)[C@]1(O)C(=O)C(C(N)=O)=C(O)[C@H]2N(C)C

> <INCHI_IDENTIFIER>
InChI=1S/C22H24N2O9/c1-21(32)7-5-4-6-8(25)9(7)15(26)10-12(21)17(28)13-14(24(2)3)16(27)11(20(23)31)19(30)22(13,33)18(10)29/h4-6,12-14,17,25,27-29,32-33H,1-3H3,(H2,23,31)/t12-,13-,14+,17+,21-,22+/m1/s1

> <INCHI_KEY>
IWVCMVBTMGNXQD-PXOLEDIWSA-N

> <FORMULA>
C22H24N2O9

> <MOLECULAR_WEIGHT>
460.434

> <EXACT_MASS>
460.148180376

> <JCHEM_ACCEPTOR_COUNT>
10

> <JCHEM_ATOM_COUNT>
57

> <JCHEM_AVERAGE_POLARIZABILITY>
43.218888299800234

> <JCHEM_BIOAVAILABILITY>
0

> <JCHEM_DONOR_COUNT>
7

> <JCHEM_FORMAL_CHARGE>
0

> <JCHEM_GHOSE_FILTER>
0

> <JCHEM_IUPAC>
(4S,4aR,5S,5aR,6S,12aS)-4-(dimethylamino)-3,5,6,10,12,12a-hexahydroxy-6-methyl-1,11-dioxo-1,4,4a,5,5a,6,11,12a-octahydrotetracene-2-carboxamide

> <ALOGPS_LOGP>
-0.99

> <JCHEM_LOGP>
-4.5013489734732826

> <ALOGPS_LOGS>
-2.52

> <JCHEM_MDDR_LIKE_RULE>
0

> <JCHEM_NUMBER_OF_RINGS>
4

> <JCHEM_PHYSIOLOGICAL_CHARGE>
0

> <JCHEM_PKA>
7.957388085273197

> <JCHEM_PKA_STRONGEST_ACIDIC>
2.842774671640649

> <JCHEM_PKA_STRONGEST_BASIC>
7.413124695057921

> <JCHEM_POLAR_SURFACE_AREA>
201.85

> <JCHEM_REFRACTIVITY>
115.39819999999997

> <JCHEM_ROTATABLE_BOND_COUNT>
2

> <JCHEM_RULE_OF_FIVE>
0

> <ALOGPS_SOLUBILITY>
1.40e+00 g/l

> <JCHEM_TRADITIONAL_IUPAC>
oxytetracycline

> <JCHEM_VEBER_RULE>
0

> <DRUGBANK_ID>
DB00595

> <SECONDARY_ACCESSION_NUMBERS>
APRD00019

> <DRUG_GROUPS>
approved; investigational; vet_approved

> <GENERIC_NAME>
Oxytetracycline

> <SYNONYMS>
5-Hydroxytetracycline; Embryostat; Hydroxytetracyclinum; Mepatar; Ossitetraciclina; Oxitetraciclina; Oxyterracin; Oxyterracine; Oxytetracyclin; Oxytétracycline; Oxytetracycline; Oxytetracycline (anhydrous); Oxytetracycline amphoteric; Oxytetracyclinum

> <PRODUCTS>
Terra-Cortril; Terramycin; Urobiotic

> <INTERNATIONAL_BRANDS>
Adamycin; Anglocycline; Corsamycin; Oxacin; Oxypan; Oxyterracyna; Terrados; Tetran; Tetrasona

> <SALTS>
Oxytetracycline calcium; Oxytetracycline dihydrate; Oxytetracycline hydrochloride; Oxytetracycline monocalcium

$$$$
8982
  -OEChem-02062018103D

 51 54  0     1  0  0  0  0  0999 V2000
    2.2171    1.3192    1.6253 S   0  0  0  0  0  0  0  0  0  0  0  0
    1.9425   -0.7338   -2.2392 O   0  0  0  0  0  0  0  0  0  0  0  0
    6.3138   -0.2082    0.1178 O   0  0  0  0  0  0  0  0  0  0  0  0
    5.3783    1.8650   -0.0319 O   0  0  0  0  0  0  0  0  0  0  0  0
   -1.0746   -0.0053   -2.2441 O   0  0  0  0  0  0  0  0  0  0  0  0
   -1.0929   -2.3036    0.1222 O   0  0  0  0  0  0  0  0  0  0  0  0
    3.0975    0.7044   -0.7686 N   0  0  0  0  0  0  0  0  0  0  0  0
   -0.0644    0.8860   -0.3578 N   0  0  0  0  0  0  0  0  0  0  0  0
    2.3341    1.7852   -0.1432 C   0  0  1  0  0  0  0  0  0  0  0  0
    3.2793   -0.1981    1.4412 C   0  0  0  0  0  0  0  0  0  0  0  0
    3.9681   -0.0959    0.0618 C   0  0  2  0  0  0  0  0  0  0  0  0
    1.1490    1.3695   -1.0302 C   0  0  1  0  0  0  0  0  0  0  0  0
    2.0720    0.2466   -1.5422 C   0  0  0  0  0  0  0  0  0  0  0  0
    4.2571   -0.2713    2.6184 C   0  0  0  0  0  0  0  0  0  0  0  0
    2.3462   -1.4197    1.4926 C   0  0  0  0  0  0  0  0  0  0  0  0
    5.2676    0.6504    0.0429 C   0  0  0  0  0  0  0  0  0  0  0  0
   -1.0900    0.2278   -1.0382 C   0  0  0  0  0  0  0  0  0  0  0  0
   -2.2457   -0.2233   -0.2224 C   0  0  0  0  0  0  0  0  0  0  0  0
   -3.3453    0.6084   -0.0235 C   0  0  0  0  0  0  0  0  0  0  0  0
   -2.1735   -1.4957    0.3197 C   0  0  0  0  0  0  0  0  0  0  0  0
   -4.4214    0.1291    0.7610 C   0  0  0  0  0  0  0  0  0  0  0  0
   -3.2315   -1.9670    1.0910 C   0  0  0  0  0  0  0  0  0  0  0  0
   -3.4179    1.8985   -0.5737 C   0  0  0  0  0  0  0  0  0  0  0  0
   -4.3489   -1.1610    1.3111 C   0  0  0  0  0  0  0  0  0  0  0  0
   -5.5382    0.9539    0.9721 C   0  0  0  0  0  0  0  0  0  0  0  0
   -4.5351    2.7044   -0.3537 C   0  0  0  0  0  0  0  0  0  0  0  0
   -5.5933    2.2331    0.4177 C   0  0  0  0  0  0  0  0  0  0  0  0
   -1.3287   -3.5528   -0.5230 C   0  0  0  0  0  0  0  0  0  0  0  0
   -0.1214   -3.9458   -1.3030 C   0  0  0  0  0  0  0  0  0  0  0  0
    2.7456    2.7789   -0.3416 H   0  0  0  0  0  0  0  0  0  0  0  0
    4.0976   -1.0767   -0.4108 H   0  0  0  0  0  0  0  0  0  0  0  0
    0.9078    2.1040   -1.8079 H   0  0  0  0  0  0  0  0  0  0  0  0
    3.7286   -0.3814    3.5730 H   0  0  0  0  0  0  0  0  0  0  0  0
    4.9222   -1.1364    2.5157 H   0  0  0  0  0  0  0  0  0  0  0  0
    4.8848    0.6235    2.6954 H   0  0  0  0  0  0  0  0  0  0  0  0
    2.9232   -2.3465    1.3899 H   0  0  0  0  0  0  0  0  0  0  0  0
    1.8069   -1.4784    2.4455 H   0  0  0  0  0  0  0  0  0  0  0  0
    1.6029   -1.4147    0.6894 H   0  0  0  0  0  0  0  0  0  0  0  0
   -0.1747    1.0257    0.6439 H   0  0  0  0  0  0  0  0  0  0  0  0
    7.1748    0.2617    0.1074 H   0  0  0  0  0  0  0  0  0  0  0  0
   -3.1994   -2.9573    1.5373 H   0  0  0  0  0  0  0  0  0  0  0  0
   -2.6153    2.3063   -1.1833 H   0  0  0  0  0  0  0  0  0  0  0  0
   -5.1636   -1.5492    1.9190 H   0  0  0  0  0  0  0  0  0  0  0  0
   -6.3769    0.6062    1.5717 H   0  0  0  0  0  0  0  0  0  0  0  0
   -4.5791    3.7003   -0.7850 H   0  0  0  0  0  0  0  0  0  0  0  0
   -6.4629    2.8610    0.5884 H   0  0  0  0  0  0  0  0  0  0  0  0
   -1.5428   -4.3075    0.2417 H   0  0  0  0  0  0  0  0  0  0  0  0
   -2.1915   -3.4879   -1.1980 H   0  0  0  0  0  0  0  0  0  0  0  0
   -0.2646   -4.9115   -1.7961 H   0  0  0  0  0  0  0  0  0  0  0  0
    0.1097   -3.1957   -2.0670 H   0  0  0  0  0  0  0  0  0  0  0  0
    0.7587   -4.0124   -0.6544 H   0  0  0  0  0  0  0  0  0  0  0  0
  1  9  1  0  0  0  0
  1 10  1  0  0  0  0
  2 13  2  0  0  0  0
  3 16  1  0  0  0  0
  3 40  1  0  0  0  0
  4 16  2  0  0  0  0
  5 17  2  0  0  0  0
  6 20  1  0  0  0  0
  6 28  1  0  0  0  0
  7  9  1  0  0  0  0
  7 11  1  0  0  0  0
  7 13  1  0  0  0  0
  8 12  1  0  0  0  0
  8 17  1  0  0  0  0
  8 39  1  0  0  0  0
  9 12  1  0  0  0  0
  9 30  1  0  0  0  0
 10 11  1  0  0  0  0
 10 14  1  0  0  0  0
 10 15  1  0  0  0  0
 11 16  1  0  0  0  0
 11 31  1  0  0  0  0
 12 13  1  0  0  0  0
 12 32  1  0  0  0  0
 14 33  1  0  0  0  0
 14 34  1  0  0  0  0
 14 35  1  0  0  0  0
 15 36  1  0  0  0  0
 15 37  1  0  0  0  0
 15 38  1  0  0  0  0
 17 18  1  0  0  0  0
 18 19  1  0  0  0  0
 18 20  2  0  0  0  0
 19 21  1  0  0  0  0
 19 23  2  0  0  0  0
 20 22  1  0  0  0  0
 21 24  1  0  0  0  0
 21 25  2  0  0  0  0
 22 24  2  0  0  0  0
 22 41  1  0  0  0  0
 23 26  1  0  0  0  0
 23 42  1  0  0  0  0
 24 43  1  0  0  0  0
 25 27  1  0  0  0  0
 25 44  1  0  0  0  0
 26 27  2  0  0  0  0
 26 45  1  0  0  0  0
 27 46  1  0  0  0  0
 28 29  1  0  0  0  0
 28 47  1  0  0  0  0
 28 48  1  0  0  0  0
 29 49  1  0  0  0  0
 29 50  1  0  0  0  0
 29 51  1  0  0  0  0
M  END
> <DATABASE_ID>
DB00607

> <DATABASE_NAME>
drugbank

> <ORIGINAL_SOURCE>
PUBCHEM

> <ORIGINAL_SOURCE_URL>
https://pubchem.ncbi.nlm.nih.gov/rest/pug/compound/inchikey/GPXLMGHLHQJAGZ-JTDSTZFVSA-N/SDF?record_type=3d

> <SMILES>
[H][C@]12SC(C)(C)[C@@H](N1C(=O)[C@H]2NC(=O)C1=C(OCC)C=CC2=CC=CC=C12)C(O)=O

> <INCHI_IDENTIFIER>
InChI=1S/C21H22N2O5S/c1-4-28-13-10-9-11-7-5-6-8-12(11)14(13)17(24)22-15-18(25)23-16(20(26)27)21(2,3)29-19(15)23/h5-10,15-16,19H,4H2,1-3H3,(H,22,24)(H,26,27)/t15-,16+,19-/m1/s1

> <INCHI_KEY>
GPXLMGHLHQJAGZ-JTDSTZFVSA-N

> <FORMULA>
C21H22N2O5S

> <MOLECULAR_WEIGHT>
414.475

> <EXACT_MASS>
414.124942514

> <JCHEM_ACCEPTOR_COUNT>
5

> <JCHEM_ATOM_COUNT>
51

> <JCHEM_AVERAGE_NEUTRAL_MICROSPECIES_CHARGE>
-0.9997962657360288

> <JCHEM_AVERAGE_POLARIZABILITY>
42.22398600842352

> <JCHEM_BIOAVAILABILITY>
1

> <JCHEM_DONOR_COUNT>
2

> <JCHEM_FORMAL_CHARGE>
0

> <JCHEM_GHOSE_FILTER>
1

> <JCHEM_IUPAC>
(2S,5R,6R)-6-(2-ethoxynaphthalene-1-amido)-3,3-dimethyl-7-oxo-4-thia-1-azabicyclo[3.2.0]heptane-2-carboxylic acid

> <ALOGPS_LOGP>
3.21

> <JCHEM_LOGP>
2.2891260173333334

> <ALOGPS_LOGS>
-4.38

> <JCHEM_MDDR_LIKE_RULE>
0

> <JCHEM_NEUTRAL_CHARGE>
-1

> <JCHEM_NUMBER_OF_RINGS>
4

> <JCHEM_PHYSIOLOGICAL_CHARGE>
-1

> <JCHEM_PKA>
13.984842945392675

> <JCHEM_PKA_STRONGEST_ACIDIC>
3.3094089455406515

> <JCHEM_PKA_STRONGEST_BASIC>
-1.8757405625251076

> <JCHEM_POLAR_SURFACE_AREA>
95.94

> <JCHEM_REFRACTIVITY>
108.13840000000002

> <JCHEM_ROTATABLE_BOND_COUNT>
5

> <JCHEM_RULE_OF_FIVE>
1

> <ALOGPS_SOLUBILITY>
1.72e-02 g/l

> <JCHEM_TRADITIONAL_IUPAC>
cefazolin sodium

> <JCHEM_VEBER_RULE>
0

$$$$

  Mrv0541 04191212132D          

 34 37  0  0  1  0            999 V2000
    9.1461   -3.4366    0.0000 C   0  0  0  0  0  0  0  0  0  0  0  0
    7.7172   -5.9117    0.0000 N   0  0  0  0  0  0  0  0  0  0  0  0
    7.0027   -4.6741    0.0000 C   0  0  2  0  0  0  0  0  0  0  0  0
    7.0027   -3.8491    0.0000 C   0  0  2  0  0  0  0  0  0  0  0  0
    7.7172   -5.0866    0.0000 C   0  0  1  0  0  0  0  0  0  0  0  0
    6.2882   -5.0866    0.0000 C   0  0  0  0  0  0  0  0  0  0  0  0
    6.2882   -3.4366    0.0000 C   0  0  0  0  0  0  0  0  0  0  0  0
    7.7172   -3.4366    0.0000 C   0  0  0  0  0  0  0  0  0  0  0  0
    7.0027   -3.0241    0.0000 O   0  0  0  0  0  0  0  0  0  0  0  0
    8.4316   -4.6741    0.0000 C   0  0  0  0  0  0  0  0  0  0  0  0
    5.5737   -4.6741    0.0000 C   0  0  1  0  0  0  0  0  0  0  0  0
    5.5737   -3.8491    0.0000 C   0  0  0  0  0  0  0  0  0  0  0  0
    6.2882   -2.6116    0.0000 O   0  0  0  0  0  0  0  0  0  0  0  0
    8.4316   -3.8491    0.0000 C   0  0  0  0  0  0  0  0  0  0  0  0
    7.7172   -2.6116    0.0000 O   0  0  0  0  0  0  0  0  0  0  0  0
    9.1461   -5.0866    0.0000 O   0  0  0  0  0  0  0  0  0  0  0  0
    4.8592   -5.0866    0.0000 C   0  0  1  0  0  0  0  0  0  0  0  0
    4.8592   -3.4366    0.0000 C   0  0  0  0  0  0  0  0  0  0  0  0
    4.1447   -4.6741    0.0000 C   0  0  0  0  0  0  0  0  0  0  0  0
    4.8592   -5.9117    0.0000 O   0  0  0  0  0  0  0  0  0  0  0  0
    4.1447   -3.8491    0.0000 C   0  0  0  0  0  0  0  0  0  0  0  0
    4.8592   -2.6116    0.0000 O   0  0  0  0  0  0  0  0  0  0  0  0
    3.4303   -5.0866    0.0000 C   0  0  0  0  0  0  0  0  0  0  0  0
    3.4303   -3.4366    0.0000 C   0  0  0  0  0  0  0  0  0  0  0  0
    2.7158   -4.6741    0.0000 C   0  0  0  0  0  0  0  0  0  0  0  0
    3.4303   -5.9117    0.0000 Cl  0  0  0  0  0  0  0  0  0  0  0  0
    2.7158   -3.8491    0.0000 C   0  0  0  0  0  0  0  0  0  0  0  0
    3.4303   -2.6116    0.0000 O   0  0  0  0  0  0  0  0  0  0  0  0
    7.0027   -5.4992    0.0000 H   0  0  0  0  0  0  0  0  0  0  0  0
    5.5737   -5.4992    0.0000 H   0  0  0  0  0  0  0  0  0  0  0  0
    8.4316   -6.3242    0.0000 C   0  0  0  0  0  0  0  0  0  0  0  0
    7.0027   -6.3242    0.0000 C   0  0  0  0  0  0  0  0  0  0  0  0
    9.1461   -2.6116    0.0000 O   0  0  0  0  0  0  0  0  0  0  0  0
    9.8606   -3.8491    0.0000 N   0  0  0  0  0  0  0  0  0  0  0  0
 12 18  1  0  0  0  0
 17 19  1  0  0  0  0
 17 20  1  6  0  0  0
 18 21  1  0  0  0  0
 18 22  2  0  0  0  0
 19 23  1  0  0  0  0
 21 24  1  0  0  0  0
 23 25  2  0  0  0  0
 23 26  1  0  0  0  0
 24 27  2  0  0  0  0
 24 28  1  0  0  0  0
 10 14  2  0  0  0  0
 11 12  1  0  0  0  0
 19 21  2  0  0  0  0
 25 27  1  0  0  0  0
  3 29  1  1  0  0  0
 11 30  1  1  0  0  0
  3  4  1  0  0  0  0
  3  5  1  0  0  0  0
  3  6  1  0  0  0  0
  4  7  1  0  0  0  0
  4  8  1  0  0  0  0
  4  9  1  1  0  0  0
  5 10  1  0  0  0  0
  6 11  1  0  0  0  0
  7 12  2  0  0  0  0
  7 13  1  0  0  0  0
  8 14  1  0  0  0  0
  8 15  2  0  0  0  0
 10 16  1  0  0  0  0
 11 17  1  0  0  0  0
  5  2  1  1  0  0  0
 14  1  1  0  0  0  0
  2 31  1  0  0  0  0
  2 32  1  0  0  0  0
  1 33  2  0  0  0  0
  1 34  1  0  0  0  0
M  END
> <DATABASE_ID>
DB00618

> <DATABASE_NAME>
drugbank

> <SMILES>
[H][C@]12C[C@@]3([H])[C@H](N(C)C)C(O)=C(C(N)=O)C(=O)[C@@]3(O)C(O)=C1C(=O)C1=C([C@H]2O)C(Cl)=CC=C1O

> <INCHI_IDENTIFIER>
InChI=1S/C21H21ClN2O8/c1-24(2)14-7-5-6-10(16(27)12-9(25)4-3-8(22)11(12)15(6)26)18(29)21(7,32)19(30)13(17(14)28)20(23)31/h3-4,6-7,14-15,25-26,28-29,32H,5H2,1-2H3,(H2,23,31)/t6-,7-,14-,15-,21-/m0/s1

> <INCHI_KEY>
FMTDIUIBLCQGJB-SEYHBJAFSA-N

> <FORMULA>
C21H21ClN2O8

> <MOLECULAR_WEIGHT>
464.853

> <EXACT_MASS>
464.098643365

> <JCHEM_ACCEPTOR_COUNT>
9

> <JCHEM_AVERAGE_POLARIZABILITY>
43.79661192444991

> <JCHEM_BIOAVAILABILITY>
1

> <JCHEM_DONOR_COUNT>
6

> <JCHEM_FORMAL_CHARGE>
0

> <JCHEM_GHOSE_FILTER>
0

> <JCHEM_IUPAC>
(4S,4aS,5aS,6S,12aS)-7-chloro-4-(dimethylamino)-3,6,10,12,12a-pentahydroxy-1,11-dioxo-1,4,4a,5,5a,6,11,12a-octahydrotetracene-2-carboxamide

> <ALOGPS_LOGP>
-0.40

> <JCHEM_LOGP>
-3.234198232678034

> <ALOGPS_LOGS>
-2.94

> <JCHEM_MDDR_LIKE_RULE>
0

> <JCHEM_NUMBER_OF_RINGS>
4

> <JCHEM_PHYSIOLOGICAL_CHARGE>
-1

> <JCHEM_PKA>
4.345393447608253

> <JCHEM_PKA_STRONGEST_ACIDIC>
-2.5592184196272365

> <JCHEM_PKA_STRONGEST_BASIC>
8.230179346707681

> <JCHEM_POLAR_SURFACE_AREA>
181.62

> <JCHEM_REFRACTIVITY>
114.35489999999994

> <JCHEM_ROTATABLE_BOND_COUNT>
2

> <JCHEM_RULE_OF_FIVE>
0

> <ALOGPS_SOLUBILITY>
5.30e-01 g/l

> <JCHEM_TRADITIONAL_IUPAC>
demeclocycline

> <JCHEM_VEBER_RULE>
0

> <DRUGBANK_ID>
DB00618

> <SECONDARY_ACCESSION_NUMBERS>
APRD00272

> <DRUG_GROUPS>
approved

> <GENERIC_NAME>
Demeclocycline

> <SYNONYMS>
[4S-(4α,4aα,5aα,6β,12aα)]-7-chloro-4-(dimethylamino)1,4,4a,5,5a,6,11,12a-octahydro-3,6,10,12,12a-pentahydroxy-1,11-dioxo-2-naphthacenecarboxamide; 6-demethyl-7-chlorotetracycline; 7-chloro-6-demethyltetracycline; Demeclociclina; Demeclocycline; Demeclocyclinum; Demethylchlortetracyclin; Demethylchlortetracycline; DMCT; DMCTC

> <PRODUCTS>
Declomycin; Declomycin - Tab 300mg; Declomycin Tab 150mg; Declomycin Tab 300mg; Demeclocycline Hydrochloride

> <INTERNATIONAL_BRANDS>
Declostatin; Ledermycin

> <SALTS>
Demeclocycline hydrochloride

$$$$
5320
  -OEChem-10051719193D

 24 24  0     0  0  0  0  0  0999 V2000
    1.1675   -1.2750   -0.2485 S   0  0  0  0  0  0  0  0  0  0  0  0
    1.1709   -2.5850    0.3893 O   0  0  0  0  0  0  0  0  0  0  0  0
    1.5888   -1.1505   -1.6372 O   0  0  0  0  0  0  0  0  0  0  0  0
    2.4302    1.5112   -0.8735 O   0  0  0  0  0  0  0  0  0  0  0  0
    2.0936   -0.1934    0.7062 N   0  0  0  0  0  0  0  0  0  0  0  0
   -4.2760    1.0753    0.2018 N   0  0  0  0  0  0  0  0  0  0  0  0
   -0.4309   -0.5850   -0.1165 C   0  0  0  0  0  0  0  0  0  0  0  0
   -1.2820   -0.9888    0.9123 C   0  0  0  0  0  0  0  0  0  0  0  0
   -0.8569    0.3700   -1.0398 C   0  0  0  0  0  0  0  0  0  0  0  0
   -2.9850    0.5171    0.0947 C   0  0  0  0  0  0  0  0  0  0  0  0
   -2.5591   -0.4378    1.0178 C   0  0  0  0  0  0  0  0  0  0  0  0
   -2.1340    0.9211   -0.9341 C   0  0  0  0  0  0  0  0  0  0  0  0
    2.6228    1.0545    0.2477 C   0  0  0  0  0  0  0  0  0  0  0  0
    3.4502    1.7662    1.2796 C   0  0  0  0  0  0  0  0  0  0  0  0
   -0.9680   -1.7262    1.6456 H   0  0  0  0  0  0  0  0  0  0  0  0
   -0.2110    0.7034   -1.8470 H   0  0  0  0  0  0  0  0  0  0  0  0
    2.3319   -0.5044    1.6570 H   0  0  0  0  0  0  0  0  0  0  0  0
   -3.2125   -0.7595    1.8248 H   0  0  0  0  0  0  0  0  0  0  0  0
   -2.4540    1.6654   -1.6589 H   0  0  0  0  0  0  0  0  0  0  0  0
    4.3038    1.1441    1.5614 H   0  0  0  0  0  0  0  0  0  0  0  0
    3.8190    2.7105    0.8697 H   0  0  0  0  0  0  0  0  0  0  0  0
    2.8390    1.9770    2.1612 H   0  0  0  0  0  0  0  0  0  0  0  0
   -4.8942    0.7818    0.9465 H   0  0  0  0  0  0  0  0  0  0  0  0
   -4.5857    1.7666   -0.4682 H   0  0  0  0  0  0  0  0  0  0  0  0
  1  2  2  0  0  0  0
  1  3  2  0  0  0  0
  1  5  1  0  0  0  0
  1  7  1  0  0  0  0
  4 13  2  0  0  0  0
  5 13  1  0  0  0  0
  5 17  1  0  0  0  0
  6 10  1  0  0  0  0
  6 23  1  0  0  0  0
  6 24  1  0  0  0  0
  7  8  2  0  0  0  0
  7  9  1  0  0  0  0
  8 11  1  0  0  0  0
  8 15  1  0  0  0  0
  9 12  2  0  0  0  0
  9 16  1  0  0  0  0
 10 11  2  0  0  0  0
 10 12  1  0  0  0  0
 11 18  1  0  0  0  0
 12 19  1  0  0  0  0
 13 14  1  0  0  0  0
 14 20  1  0  0  0  0
 14 21  1  0  0  0  0
 14 22  1  0  0  0  0
M  END
> <DATABASE_ID>
DB00634

> <DATABASE_NAME>
drugbank

> <ORIGINAL_SOURCE>
PUBCHEM

> <ORIGINAL_SOURCE_URL>
https://pubchem.ncbi.nlm.nih.gov/rest/pug/compound/inchikey/SKIVFJLNDNKQPD-UHFFFAOYSA-N/SDF?record_type=3d

> <SMILES>
CC(=O)NS(=O)(=O)C1=CC=C(N)C=C1

> <INCHI_IDENTIFIER>
InChI=1S/C8H10N2O3S/c1-6(11)10-14(12,13)8-4-2-7(9)3-5-8/h2-5H,9H2,1H3,(H,10,11)

> <INCHI_KEY>
SKIVFJLNDNKQPD-UHFFFAOYSA-N

> <FORMULA>
C8H10N2O3S

> <MOLECULAR_WEIGHT>
214.242

> <EXACT_MASS>
214.041212886

> <JCHEM_ACCEPTOR_COUNT>
4

> <JCHEM_AVERAGE_POLARIZABILITY>
20.491204809580424

> <JCHEM_BIOAVAILABILITY>
1

> <JCHEM_DONOR_COUNT>
2

> <JCHEM_FORMAL_CHARGE>
0

> <JCHEM_GHOSE_FILTER>
1

> <JCHEM_IUPAC>
N-(4-aminobenzenesulfonyl)acetamide

> <ALOGPS_LOGP>
0.15

> <JCHEM_LOGP>
-0.2610410626666669

> <ALOGPS_LOGS>
-1.71

> <JCHEM_MDDR_LIKE_RULE>
0

> <JCHEM_NUMBER_OF_RINGS>
1

> <JCHEM_PHYSIOLOGICAL_CHARGE>
-1

> <JCHEM_PKA_STRONGEST_ACIDIC>
4.299983698566216

> <JCHEM_PKA_STRONGEST_BASIC>
2.1375402711797

> <JCHEM_POLAR_SURFACE_AREA>
89.26

> <JCHEM_REFRACTIVITY>
52.482200000000006

> <JCHEM_ROTATABLE_BOND_COUNT>
1

> <JCHEM_RULE_OF_FIVE>
1

> <ALOGPS_SOLUBILITY>
4.21e+00 g/l

> <JCHEM_TRADITIONAL_IUPAC>
sulfacetamide

> <JCHEM_VEBER_RULE>
0

$$$$
36294
  -OEChem-10051719213D

 69 71  0     1  0  0  0  0  0999 V2000
   -1.2780    0.8560    0.4184 O   0  0  0  0  0  0  0  0  0  0  0  0
    1.3281    0.2231   -0.5590 O   0  0  0  0  0  0  0  0  0  0  0  0
    0.0859    3.4021   -1.8079 O   0  0  0  0  0  0  0  0  0  0  0  0
   -3.5805    0.5749   -0.0639 O   0  0  0  0  0  0  0  0  0  0  0  0
    3.4581   -0.6662   -1.0818 O   0  0  0  0  0  0  0  0  0  0  0  0
   -1.6948   -0.0750    2.9969 O   0  0  0  0  0  0  0  0  0  0  0  0
   -3.1878   -3.0625   -0.4942 O   0  0  0  0  0  0  0  0  0  0  0  0
    3.1270   -3.4409    1.3095 O   0  0  0  0  0  0  0  0  0  0  0  0
   -4.3429    0.4205   -2.6781 O   0  0  0  0  0  0  0  0  0  0  0  0
   -0.3178    4.3683    1.0215 N   0  0  0  0  0  0  0  0  0  0  0  0
    2.4682    3.6946   -0.0203 N   0  0  0  0  0  0  0  0  0  0  0  0
    0.0806   -1.8346   -2.1171 N   0  0  0  0  0  0  0  0  0  0  0  0
   -2.7581   -2.7574    2.3582 N   0  0  0  0  0  0  0  0  0  0  0  0
    5.6353   -0.0434    0.5943 N   0  0  0  0  0  0  0  0  0  0  0  0
   -0.9413    2.1904    0.0321 C   0  0  2  0  0  0  0  0  0  0  0  0
    1.4012    1.6212   -0.8467 C   0  0  1  0  0  0  0  0  0  0  0  0
   -0.0113    2.1218   -1.1918 C   0  0  2  0  0  0  0  0  0  0  0  0
   -0.3252    2.9211    1.2404 C   0  0  1  0  0  0  0  0  0  0  0  0
    2.0418    2.3457    0.3527 C   0  0  2  0  0  0  0  0  0  0  0  0
    1.0834    2.3833    1.5570 C   0  0  0  0  0  0  0  0  0  0  0  0
   -2.5997    0.7908    0.9511 C   0  0  1  0  0  0  0  0  0  0  0  0
    2.0923   -0.5365   -1.4931 C   0  0  1  0  0  0  0  0  0  0  0  0
   -2.6930   -0.3100    2.0099 C   0  0  1  0  0  0  0  0  0  0  0  0
    1.4766   -1.9276   -1.6992 C   0  0  1  0  0  0  0  0  0  0  0  0
   -2.5221   -1.6955    1.3730 C   0  0  2  0  0  0  0  0  0  0  0  0
   -3.5029   -1.8579    0.1998 C   0  0  1  0  0  0  0  0  0  0  0  0
   -3.4114   -0.6632   -0.7631 C   0  0  1  0  0  0  0  0  0  0  0  0
    1.5942   -2.7610   -0.4229 C   0  0  0  0  0  0  0  0  0  0  0  0
    3.0495   -2.7955    0.0445 C   0  0  1  0  0  0  0  0  0  0  0  0
    3.6207   -1.3769    0.1508 C   0  0  1  0  0  0  0  0  0  0  0  0
   -4.4884   -0.7139   -1.8438 C   0  0  0  0  0  0  0  0  0  0  0  0
    5.1122   -1.3959    0.4728 C   0  0  0  0  0  0  0  0  0  0  0  0
   -1.8522    2.7177   -0.2878 H   0  0  0  0  0  0  0  0  0  0  0  0
    2.0522    1.8062   -1.7130 H   0  0  0  0  0  0  0  0  0  0  0  0
   -0.4597    1.4385   -1.9243 H   0  0  0  0  0  0  0  0  0  0  0  0
   -0.9378    2.7391    2.1311 H   0  0  0  0  0  0  0  0  0  0  0  0
    2.9360    1.7920    0.6641 H   0  0  0  0  0  0  0  0  0  0  0  0
    1.5309    2.9612    2.3768 H   0  0  0  0  0  0  0  0  0  0  0  0
    0.9810    1.3606    1.9454 H   0  0  0  0  0  0  0  0  0  0  0  0
   -2.8535    1.7363    1.4465 H   0  0  0  0  0  0  0  0  0  0  0  0
    2.0978   -0.0502   -2.4776 H   0  0  0  0  0  0  0  0  0  0  0  0
   -3.6761   -0.2597    2.4964 H   0  0  0  0  0  0  0  0  0  0  0  0
    2.0432   -2.4419   -2.4866 H   0  0  0  0  0  0  0  0  0  0  0  0
   -1.4894   -1.8182    1.0224 H   0  0  0  0  0  0  0  0  0  0  0  0
   -4.5276   -1.9424    0.5838 H   0  0  0  0  0  0  0  0  0  0  0  0
   -2.4381   -0.6444   -1.2684 H   0  0  0  0  0  0  0  0  0  0  0  0
    1.2358   -3.7849   -0.5894 H   0  0  0  0  0  0  0  0  0  0  0  0
    0.9609   -2.3515    0.3758 H   0  0  0  0  0  0  0  0  0  0  0  0
   -1.2733    4.7026    0.9034 H   0  0  0  0  0  0  0  0  0  0  0  0
    0.0529    4.8382    1.8463 H   0  0  0  0  0  0  0  0  0  0  0  0
    3.1618    3.6426   -0.7652 H   0  0  0  0  0  0  0  0  0  0  0  0
    2.9288    4.1405    0.7718 H   0  0  0  0  0  0  0  0  0  0  0  0
    3.6392   -3.3780   -0.6743 H   0  0  0  0  0  0  0  0  0  0  0  0
    3.1064   -0.8313    0.9541 H   0  0  0  0  0  0  0  0  0  0  0  0
    0.6235    3.3032   -2.6120 H   0  0  0  0  0  0  0  0  0  0  0  0
   -5.4885   -0.6751   -1.3991 H   0  0  0  0  0  0  0  0  0  0  0  0
   -4.3987   -1.6171   -2.4549 H   0  0  0  0  0  0  0  0  0  0  0  0
    5.6629   -1.9055   -0.3264 H   0  0  0  0  0  0  0  0  0  0  0  0
    5.3005   -1.9338    1.4075 H   0  0  0  0  0  0  0  0  0  0  0  0
   -0.2862   -2.7668   -2.3038 H   0  0  0  0  0  0  0  0  0  0  0  0
    0.0172   -1.3174   -2.9928 H   0  0  0  0  0  0  0  0  0  0  0  0
   -2.5944   -3.6656    1.9255 H   0  0  0  0  0  0  0  0  0  0  0  0
   -2.0840   -2.6720    3.1178 H   0  0  0  0  0  0  0  0  0  0  0  0
   -1.8657    0.7995    3.3860 H   0  0  0  0  0  0  0  0  0  0  0  0
   -2.2861   -2.9773   -0.8483 H   0  0  0  0  0  0  0  0  0  0  0  0
    2.7573   -4.3343    1.2061 H   0  0  0  0  0  0  0  0  0  0  0  0
    6.6445   -0.0800    0.7310 H   0  0  0  0  0  0  0  0  0  0  0  0
    5.4812    0.4643   -0.2759 H   0  0  0  0  0  0  0  0  0  0  0  0
   -5.0385    0.3697   -3.3556 H   0  0  0  0  0  0  0  0  0  0  0  0
  1 15  1  0  0  0  0
  1 21  1  0  0  0  0
  2 16  1  0  0  0  0
  2 22  1  0  0  0  0
  3 17  1  0  0  0  0
  3 55  1  0  0  0  0
  4 21  1  0  0  0  0
  4 27  1  0  0  0  0
  5 22  1  0  0  0  0
  5 30  1  0  0  0  0
  6 23  1  0  0  0  0
  6 64  1  0  0  0  0
  7 26  1  0  0  0  0
  7 65  1  0  0  0  0
  8 29  1  0  0  0  0
  8 66  1  0  0  0  0
  9 31  1  0  0  0  0
  9 69  1  0  0  0  0
 10 18  1  0  0  0  0
 10 49  1  0  0  0  0
 10 50  1  0  0  0  0
 11 19  1  0  0  0  0
 11 51  1  0  0  0  0
 11 52  1  0  0  0  0
 12 24  1  0  0  0  0
 12 60  1  0  0  0  0
 12 61  1  0  0  0  0
 13 25  1  0  0  0  0
 13 62  1  0  0  0  0
 13 63  1  0  0  0  0
 14 32  1  0  0  0  0
 14 67  1  0  0  0  0
 14 68  1  0  0  0  0
 15 17  1  0  0  0  0
 15 18  1  0  0  0  0
 15 33  1  0  0  0  0
 16 17  1  0  0  0  0
 16 19  1  0  0  0  0
 16 34  1  0  0  0  0
 17 35  1  0  0  0  0
 18 20  1  0  0  0  0
 18 36  1  0  0  0  0
 19 20  1  0  0  0  0
 19 37  1  0  0  0  0
 20 38  1  0  0  0  0
 20 39  1  0  0  0  0
 21 23  1  0  0  0  0
 21 40  1  0  0  0  0
 22 24  1  0  0  0  0
 22 41  1  0  0  0  0
 23 25  1  0  0  0  0
 23 42  1  0  0  0  0
 24 28  1  0  0  0  0
 24 43  1  0  0  0  0
 25 26  1  0  0  0  0
 25 44  1  0  0  0  0
 26 27  1  0  0  0  0
 26 45  1  0  0  0  0
 27 31  1  0  0  0  0
 27 46  1  0  0  0  0
 28 29  1  0  0  0  0
 28 47  1  0  0  0  0
 28 48  1  0  0  0  0
 29 30  1  0  0  0  0
 29 53  1  0  0  0  0
 30 32  1  0  0  0  0
 30 54  1  0  0  0  0
 31 56  1  0  0  0  0
 31 57  1  0  0  0  0
 32 58  1  0  0  0  0
 32 59  1  0  0  0  0
M  END
> <DATABASE_ID>
DB00684

> <DATABASE_NAME>
drugbank

> <ORIGINAL_SOURCE>
PUBCHEM

> <ORIGINAL_SOURCE_URL>
https://pubchem.ncbi.nlm.nih.gov/rest/pug/compound/inchikey/NLVFBUXFDBBNBW-PBSUHMDJSA-N/SDF?record_type=3d

> <SMILES>
NC[C@H]1O[C@H](O[C@@H]2[C@@H](N)C[C@@H](N)[C@H](O[C@H]3O[C@H](CO)[C@@H](O)[C@H](N)[C@H]3O)[C@H]2O)[C@H](N)C[C@@H]1O

> <INCHI_IDENTIFIER>
InChI=1S/C18H37N5O9/c19-3-9-8(25)2-7(22)17(29-9)31-15-5(20)1-6(21)16(14(15)28)32-18-13(27)11(23)12(26)10(4-24)30-18/h5-18,24-28H,1-4,19-23H2/t5-,6+,7+,8-,9+,10+,11-,12+,13+,14-,15+,16-,17+,18+/m0/s1

> <INCHI_KEY>
NLVFBUXFDBBNBW-PBSUHMDJSA-N

> <FORMULA>
C18H37N5O9

> <MOLECULAR_WEIGHT>
467.5145

> <EXACT_MASS>
467.259127807

> <JCHEM_ACCEPTOR_COUNT>
14

> <JCHEM_AVERAGE_POLARIZABILITY>
47.182264548541966

> <JCHEM_BIOAVAILABILITY>
0

> <JCHEM_DONOR_COUNT>
10

> <JCHEM_FORMAL_CHARGE>
0

> <JCHEM_GHOSE_FILTER>
0

> <JCHEM_IUPAC>
(2S,3R,4S,5S,6R)-4-amino-2-{[(1S,2S,3R,4S,6R)-4,6-diamino-3-{[(2R,3R,5S,6R)-3-amino-6-(aminomethyl)-5-hydroxyoxan-2-yl]oxy}-2-hydroxycyclohexyl]oxy}-6-(hydroxymethyl)oxane-3,5-diol

> <ALOGPS_LOGP>
-2.98

> <JCHEM_LOGP>
-6.477500564666668

> <ALOGPS_LOGS>
-0.94

> <JCHEM_MDDR_LIKE_RULE>
1

> <JCHEM_NUMBER_OF_RINGS>
3

> <JCHEM_PHYSIOLOGICAL_CHARGE>
5

> <JCHEM_PKA>
13.132781993910879

> <JCHEM_PKA_STRONGEST_ACIDIC>
12.542545735150494

> <JCHEM_PKA_STRONGEST_BASIC>
9.826251293406527

> <JCHEM_POLAR_SURFACE_AREA>
268.16999999999996

> <JCHEM_REFRACTIVITY>
106.69489999999998

> <JCHEM_ROTATABLE_BOND_COUNT>
6

> <JCHEM_RULE_OF_FIVE>
0

> <ALOGPS_SOLUBILITY>
5.37e+01 g/l

> <JCHEM_TRADITIONAL_IUPAC>
tobramycin

> <JCHEM_VEBER_RULE>
0

$$$$
6196
  -OEChem-10051719213D

 47 50  0     1  0  0  0  0  0999 V2000
    1.6788    1.4919    0.3527 S   0  0  0  0  0  0  0  0  0  0  0  0
    1.7832   -2.7264   -0.8387 O   0  0  0  0  0  0  0  0  0  0  0  0
    5.9270   -0.3228    0.5727 O   0  0  0  0  0  0  0  0  0  0  0  0
    4.9512    0.9267   -1.0651 O   0  0  0  0  0  0  0  0  0  0  0  0
   -1.2134   -2.4582   -1.4958 O   0  0  0  0  0  0  0  0  0  0  0  0
   -4.2840   -1.7120    1.2969 O   0  0  0  0  0  0  0  0  0  0  0  0
    2.7720   -0.5847   -0.8205 N   0  0  0  0  0  0  0  0  0  0  0  0
   -0.4168   -0.4137   -0.7885 N   0  0  0  0  0  0  0  0  0  0  0  0
   -4.2350   -0.3278    1.1841 N   0  0  0  0  0  0  0  0  0  0  0  0
    1.9302    0.5509   -1.1996 C   0  0  1  0  0  0  0  0  0  0  0  0
    2.7935    0.3961    1.3632 C   0  0  0  0  0  0  0  0  0  0  0  0
    3.5919   -0.4710    0.3639 C   0  0  2  0  0  0  0  0  0  0  0  0
    0.8348   -0.4678   -1.5559 C   0  0  1  0  0  0  0  0  0  0  0  0
    1.8275   -1.5381   -1.0621 C   0  0  0  0  0  0  0  0  0  0  0  0
    3.6715    1.2696    2.2651 C   0  0  0  0  0  0  0  0  0  0  0  0
    1.8931   -0.4839    2.2465 C   0  0  0  0  0  0  0  0  0  0  0  0
    4.8677    0.1332   -0.1393 C   0  0  0  0  0  0  0  0  0  0  0  0
   -1.3677   -1.4413   -0.8201 C   0  0  0  0  0  0  0  0  0  0  0  0
   -2.5547   -1.2551    0.0251 C   0  0  0  0  0  0  0  0  0  0  0  0
   -3.1763   -0.0816    0.4073 C   0  0  0  0  0  0  0  0  0  0  0  0
   -3.2605   -2.2557    0.5899 C   0  0  0  0  0  0  0  0  0  0  0  0
   -2.8196    1.2728    0.0740 C   0  0  0  0  0  0  0  0  0  0  0  0
   -3.1673   -3.7220    0.6045 C   0  0  0  0  0  0  0  0  0  0  0  0
   -3.3531    1.8711   -1.0653 C   0  0  0  0  0  0  0  0  0  0  0  0
   -1.9419    1.9800    0.8925 C   0  0  0  0  0  0  0  0  0  0  0  0
   -3.0073    3.1834   -1.3877 C   0  0  0  0  0  0  0  0  0  0  0  0
   -1.5960    3.2924    0.5701 C   0  0  0  0  0  0  0  0  0  0  0  0
   -2.1287    3.8941   -0.5699 C   0  0  0  0  0  0  0  0  0  0  0  0
    2.3293    1.1267   -2.0393 H   0  0  0  0  0  0  0  0  0  0  0  0
    3.7870   -1.4776    0.7519 H   0  0  0  0  0  0  0  0  0  0  0  0
    0.6396   -0.5386   -2.6326 H   0  0  0  0  0  0  0  0  0  0  0  0
    3.0685    1.8388    2.9827 H   0  0  0  0  0  0  0  0  0  0  0  0
    4.3659    0.6511    2.8453 H   0  0  0  0  0  0  0  0  0  0  0  0
    4.2663    1.9920    1.6950 H   0  0  0  0  0  0  0  0  0  0  0  0
    2.5016   -1.1552    2.8640 H   0  0  0  0  0  0  0  0  0  0  0  0
    1.2829    0.1193    2.9296 H   0  0  0  0  0  0  0  0  0  0  0  0
    1.2133   -1.1124    1.6622 H   0  0  0  0  0  0  0  0  0  0  0  0
   -0.5373    0.3477   -0.1341 H   0  0  0  0  0  0  0  0  0  0  0  0
    6.7727    0.0621    0.2584 H   0  0  0  0  0  0  0  0  0  0  0  0
   -3.8263   -4.1575    1.3626 H   0  0  0  0  0  0  0  0  0  0  0  0
   -3.4533   -4.1334   -0.3683 H   0  0  0  0  0  0  0  0  0  0  0  0
   -2.1451   -4.0436    0.8272 H   0  0  0  0  0  0  0  0  0  0  0  0
   -4.0386    1.3303   -1.7133 H   0  0  0  0  0  0  0  0  0  0  0  0
   -1.5228    1.5275    1.7882 H   0  0  0  0  0  0  0  0  0  0  0  0
   -3.4218    3.6519   -2.2755 H   0  0  0  0  0  0  0  0  0  0  0  0
   -0.9142    3.8470    1.2082 H   0  0  0  0  0  0  0  0  0  0  0  0
   -1.8596    4.9160   -0.8207 H   0  0  0  0  0  0  0  0  0  0  0  0
  1 10  1  0  0  0  0
  1 11  1  0  0  0  0
  2 14  2  0  0  0  0
  3 17  1  0  0  0  0
  3 39  1  0  0  0  0
  4 17  2  0  0  0  0
  5 18  2  0  0  0  0
  6  9  1  0  0  0  0
  6 21  1  0  0  0  0
  7 10  1  0  0  0  0
  7 12  1  0  0  0  0
  7 14  1  0  0  0  0
  8 13  1  0  0  0  0
  8 18  1  0  0  0  0
  8 38  1  0  0  0  0
  9 20  2  0  0  0  0
 10 13  1  0  0  0  0
 10 29  1  0  0  0  0
 11 12  1  0  0  0  0
 11 15  1  0  0  0  0
 11 16  1  0  0  0  0
 12 17  1  0  0  0  0
 12 30  1  0  0  0  0
 13 14  1  0  0  0  0
 13 31  1  0  0  0  0
 15 32  1  0  0  0  0
 15 33  1  0  0  0  0
 15 34  1  0  0  0  0
 16 35  1  0  0  0  0
 16 36  1  0  0  0  0
 16 37  1  0  0  0  0
 18 19  1  0  0  0  0
 19 20  1  0  0  0  0
 19 21  2  0  0  0  0
 20 22  1  0  0  0  0
 21 23  1  0  0  0  0
 22 24  2  0  0  0  0
 22 25  1  0  0  0  0
 23 40  1  0  0  0  0
 23 41  1  0  0  0  0
 23 42  1  0  0  0  0
 24 26  1  0  0  0  0
 24 43  1  0  0  0  0
 25 27  2  0  0  0  0
 25 44  1  0  0  0  0
 26 28  2  0  0  0  0
 26 45  1  0  0  0  0
 27 28  1  0  0  0  0
 27 46  1  0  0  0  0
 28 47  1  0  0  0  0
M  END
> <DATABASE_ID>
DB00713

> <DATABASE_NAME>
drugbank

> <ORIGINAL_SOURCE>
PUBCHEM

> <ORIGINAL_SOURCE_URL>
https://pubchem.ncbi.nlm.nih.gov/rest/pug/compound/inchikey/UWYHMGVUTGAWSP-JKIFEVAISA-N/SDF?record_type=3d

> <SMILES>
[H][C@]12SC(C)(C)[C@@H](N1C(=O)[C@H]2NC(=O)C1=C(C)ON=C1C1=CC=CC=C1)C(O)=O

> <INCHI_IDENTIFIER>
InChI=1S/C19H19N3O5S/c1-9-11(12(21-27-9)10-7-5-4-6-8-10)15(23)20-13-16(24)22-14(18(25)26)19(2,3)28-17(13)22/h4-8,13-14,17H,1-3H3,(H,20,23)(H,25,26)/t13-,14+,17-/m1/s1

> <INCHI_KEY>
UWYHMGVUTGAWSP-JKIFEVAISA-N

> <FORMULA>
C19H19N3O5S

> <MOLECULAR_WEIGHT>
401.436

> <EXACT_MASS>
401.104541423

> <JCHEM_ACCEPTOR_COUNT>
5

> <JCHEM_AVERAGE_POLARIZABILITY>
39.60884583075184

> <JCHEM_BIOAVAILABILITY>
1

> <JCHEM_DONOR_COUNT>
2

> <JCHEM_FORMAL_CHARGE>
0

> <JCHEM_GHOSE_FILTER>
1

> <JCHEM_IUPAC>
(2S,5R,6R)-3,3-dimethyl-6-(5-methyl-3-phenyl-1,2-oxazole-4-amido)-7-oxo-4-thia-1-azabicyclo[3.2.0]heptane-2-carboxylic acid

> <ALOGPS_LOGP>
2.05

> <JCHEM_LOGP>
1.6976949820000002

> <ALOGPS_LOGS>
-3.67

> <JCHEM_MDDR_LIKE_RULE>
0

> <JCHEM_NUMBER_OF_RINGS>
4

> <JCHEM_PHYSIOLOGICAL_CHARGE>
-1

> <JCHEM_PKA>
13.650808618295354

> <JCHEM_PKA_STRONGEST_ACIDIC>
3.750966590256605

> <JCHEM_PKA_STRONGEST_BASIC>
-0.11723067800138864

> <JCHEM_POLAR_SURFACE_AREA>
112.74

> <JCHEM_REFRACTIVITY>
101.83230000000002

> <JCHEM_ROTATABLE_BOND_COUNT>
4

> <JCHEM_RULE_OF_FIVE>
1

> <ALOGPS_SOLUBILITY>
8.62e-02 g/l

> <JCHEM_TRADITIONAL_IUPAC>
oxacillin

> <JCHEM_VEBER_RULE>
0

$$$$
443387
  -OEChem-10051719223D

 50 53  0     1  0  0  0  0  0999 V2000
   -0.9884   -0.3890   -1.6805 S   0  0  0  0  0  0  0  0  0  0  0  0
   -1.8373    1.4240    2.2443 O   0  0  0  0  0  0  0  0  0  0  0  0
    0.3824   -0.1769    1.3716 O   0  0  0  0  0  0  0  0  0  0  0  0
   -4.5167   -2.2661    0.8752 O   0  0  0  0  0  0  0  0  0  0  0  0
   -5.0346   -0.0505    0.7373 O   0  0  0  0  0  0  0  0  0  0  0  0
   -2.5375    0.6211    0.1383 N   0  0  0  0  0  0  0  0  0  0  0  0
    0.4433    1.7382    0.0142 N   0  0  0  0  0  0  0  0  0  0  0  0
    2.6919    1.7635   -0.4536 N   0  0  0  0  0  0  0  0  0  0  0  0
   -1.8212    1.1108   -1.0432 C   0  0  1  0  0  0  0  0  0  0  0  0
   -1.0066    2.0052   -0.0986 C   0  0  1  0  0  0  0  0  0  0  0  0
   -2.7876   -0.8000    0.2701 C   0  0  2  0  0  0  0  0  0  0  0  0
   -2.3724   -1.4689   -1.0579 C   0  0  0  0  0  0  0  0  0  0  0  0
   -1.8479    1.3852    1.0348 C   0  0  0  0  0  0  0  0  0  0  0  0
    1.4700    2.5725   -0.5727 C   0  0  0  0  0  0  0  0  0  0  0  0
    0.9834    0.6819    0.7428 C   0  0  0  0  0  0  0  0  0  0  0  0
    2.4859    0.8083    0.6418 C   0  0  1  0  0  0  0  0  0  0  0  0
   -3.4709   -1.4933   -2.1295 C   0  0  0  0  0  0  0  0  0  0  0  0
   -1.8348   -2.8823   -0.8263 C   0  0  0  0  0  0  0  0  0  0  0  0
   -4.2260   -0.9622    0.6455 C   0  0  0  0  0  0  0  0  0  0  0  0
    1.2255    2.8430   -2.0591 C   0  0  0  0  0  0  0  0  0  0  0  0
    1.6278    3.8885    0.2000 C   0  0  0  0  0  0  0  0  0  0  0  0
    3.1827   -0.5063    0.3957 C   0  0  0  0  0  0  0  0  0  0  0  0
    3.6012   -1.2911    1.4730 C   0  0  0  0  0  0  0  0  0  0  0  0
    3.4124   -0.9451   -0.9107 C   0  0  0  0  0  0  0  0  0  0  0  0
    4.2455   -2.5072    1.2455 C   0  0  0  0  0  0  0  0  0  0  0  0
    4.0567   -2.1612   -1.1381 C   0  0  0  0  0  0  0  0  0  0  0  0
    4.4733   -2.9422   -0.0599 C   0  0  0  0  0  0  0  0  0  0  0  0
   -2.4737    1.6300   -1.7509 H   0  0  0  0  0  0  0  0  0  0  0  0
   -1.2176    3.0745   -0.2181 H   0  0  0  0  0  0  0  0  0  0  0  0
   -2.1832   -1.1608    1.1128 H   0  0  0  0  0  0  0  0  0  0  0  0
    2.8434    1.2605    1.5759 H   0  0  0  0  0  0  0  0  0  0  0  0
    3.5162    2.3378   -0.2867 H   0  0  0  0  0  0  0  0  0  0  0  0
   -4.2874   -2.1666   -1.8456 H   0  0  0  0  0  0  0  0  0  0  0  0
   -3.9089   -0.5029   -2.2972 H   0  0  0  0  0  0  0  0  0  0  0  0
   -3.0852   -1.8559   -3.0899 H   0  0  0  0  0  0  0  0  0  0  0  0
   -1.4525   -3.3237   -1.7543 H   0  0  0  0  0  0  0  0  0  0  0  0
   -1.0209   -2.8930   -0.0920 H   0  0  0  0  0  0  0  0  0  0  0  0
   -2.6199   -3.5482   -0.4528 H   0  0  0  0  0  0  0  0  0  0  0  0
    1.1274    1.9114   -2.6284 H   0  0  0  0  0  0  0  0  0  0  0  0
    0.3041    3.4157   -2.2132 H   0  0  0  0  0  0  0  0  0  0  0  0
    2.0486    3.4172   -2.5003 H   0  0  0  0  0  0  0  0  0  0  0  0
    2.4587    4.4859   -0.1925 H   0  0  0  0  0  0  0  0  0  0  0  0
    0.7198    4.4977    0.1298 H   0  0  0  0  0  0  0  0  0  0  0  0
    1.8142    3.7116    1.2659 H   0  0  0  0  0  0  0  0  0  0  0  0
   -5.4573   -2.3938    1.1223 H   0  0  0  0  0  0  0  0  0  0  0  0
    3.4279   -0.9641    2.4949 H   0  0  0  0  0  0  0  0  0  0  0  0
    3.0859   -0.3723   -1.7742 H   0  0  0  0  0  0  0  0  0  0  0  0
    4.5691   -3.1157    2.0849 H   0  0  0  0  0  0  0  0  0  0  0  0
    4.2302   -2.5025   -2.1544 H   0  0  0  0  0  0  0  0  0  0  0  0
    4.9738   -3.8896   -0.2371 H   0  0  0  0  0  0  0  0  0  0  0  0
  1  9  1  0  0  0  0
  1 12  1  0  0  0  0
  2 13  2  0  0  0  0
  3 15  2  0  0  0  0
  4 19  1  0  0  0  0
  4 45  1  0  0  0  0
  5 19  2  0  0  0  0
  6  9  1  0  0  0  0
  6 11  1  0  0  0  0
  6 13  1  0  0  0  0
  7 10  1  0  0  0  0
  7 14  1  0  0  0  0
  7 15  1  0  0  0  0
  8 14  1  0  0  0  0
  8 16  1  0  0  0  0
  8 32  1  0  0  0  0
  9 10  1  0  0  0  0
  9 28  1  0  0  0  0
 10 13  1  0  0  0  0
 10 29  1  0  0  0  0
 11 12  1  0  0  0  0
 11 19  1  0  0  0  0
 11 30  1  0  0  0  0
 12 17  1  0  0  0  0
 12 18  1  0  0  0  0
 14 20  1  0  0  0  0
 14 21  1  0  0  0  0
 15 16  1  0  0  0  0
 16 22  1  0  0  0  0
 16 31  1  0  0  0  0
 17 33  1  0  0  0  0
 17 34  1  0  0  0  0
 17 35  1  0  0  0  0
 18 36  1  0  0  0  0
 18 37  1  0  0  0  0
 18 38  1  0  0  0  0
 20 39  1  0  0  0  0
 20 40  1  0  0  0  0
 20 41  1  0  0  0  0
 21 42  1  0  0  0  0
 21 43  1  0  0  0  0
 21 44  1  0  0  0  0
 22 23  2  0  0  0  0
 22 24  1  0  0  0  0
 23 25  1  0  0  0  0
 23 46  1  0  0  0  0
 24 26  2  0  0  0  0
 24 47  1  0  0  0  0
 25 27  2  0  0  0  0
 25 48  1  0  0  0  0
 26 27  1  0  0  0  0
 26 49  1  0  0  0  0
 27 50  1  0  0  0  0
M  END
> <DATABASE_ID>
DB00739

> <DATABASE_NAME>
drugbank

> <ORIGINAL_SOURCE>
PUBCHEM

> <ORIGINAL_SOURCE_URL>
https://pubchem.ncbi.nlm.nih.gov/rest/pug/compound/inchikey/DXVUYOAEDJXBPY-NFFDBFGFSA-N/SDF?record_type=3d

> <SMILES>
[H][C@]12SC(C)(C)[C@@H](N1C(=O)[C@H]2N1C(=O)[C@H](NC1(C)C)C1=CC=CC=C1)C(O)=O

> <INCHI_IDENTIFIER>
InChI=1S/C19H23N3O4S/c1-18(2)13(17(25)26)21-15(24)12(16(21)27-18)22-14(23)11(20-19(22,3)4)10-8-6-5-7-9-10/h5-9,11-13,16,20H,1-4H3,(H,25,26)/t11-,12-,13+,16-/m1/s1

> <INCHI_KEY>
DXVUYOAEDJXBPY-NFFDBFGFSA-N

> <FORMULA>
C19H23N3O4S

> <MOLECULAR_WEIGHT>
389.469

> <EXACT_MASS>
389.140926929

> <JCHEM_ACCEPTOR_COUNT>
5

> <JCHEM_AVERAGE_POLARIZABILITY>
39.58154278946702

> <JCHEM_BIOAVAILABILITY>
1

> <JCHEM_DONOR_COUNT>
2

> <JCHEM_FORMAL_CHARGE>
0

> <JCHEM_GHOSE_FILTER>
0

> <JCHEM_IUPAC>
(2S,5R,6R)-6-[(4R)-2,2-dimethyl-5-oxo-4-phenylimidazolidin-1-yl]-3,3-dimethyl-7-oxo-4-thia-1-azabicyclo[3.2.0]heptane-2-carboxylic acid

> <ALOGPS_LOGP>
0.85

> <JCHEM_LOGP>
-0.015010228405816369

> <ALOGPS_LOGS>
-2.88

> <JCHEM_MDDR_LIKE_RULE>
0

> <JCHEM_NUMBER_OF_RINGS>
4

> <JCHEM_PHYSIOLOGICAL_CHARGE>
-1

> <JCHEM_PKA>
14.993524451963172

> <JCHEM_PKA_STRONGEST_ACIDIC>
3.626005434143019

> <JCHEM_PKA_STRONGEST_BASIC>
5.474500567056694

> <JCHEM_POLAR_SURFACE_AREA>
89.94999999999999

> <JCHEM_REFRACTIVITY>
99.89940000000003

> <JCHEM_ROTATABLE_BOND_COUNT>
3

> <JCHEM_RULE_OF_FIVE>
1

> <ALOGPS_SOLUBILITY>
5.12e-01 g/l

> <JCHEM_TRADITIONAL_IUPAC>
hetacillin

> <JCHEM_VEBER_RULE>
0

$$$$

  Mrv0541 02231214592D          

 34 37  0  0  1  0            999 V2000
   -1.4289   -0.3397    0.0000 C   0  0  0  0  0  0  0  0  0  0  0  0
   -1.4289    0.4853    0.0000 C   0  0  0  0  0  0  0  0  0  0  0  0
    1.4289   -0.3397    0.0000 C   0  0  1  0  0  0  0  0  0  0  0  0
    1.4289    0.4853    0.0000 C   0  0  2  0  0  0  0  0  0  0  0  0
    0.7145   -0.7522    0.0000 C   0  0  0  0  0  0  0  0  0  0  0  0
    0.7145    0.8978    0.0000 C   0  0  0  0  0  0  0  0  0  0  0  0
    0.0000   -0.3397    0.0000 C   0  0  1  0  0  0  0  0  0  0  0  0
    0.0000    0.4853    0.0000 C   0  0  0  0  0  0  0  0  0  0  0  0
   -0.7145    0.8978    0.0000 C   0  0  0  0  0  0  0  0  0  0  0  0
   -0.7145   -0.7522    0.0000 C   0  0  2  0  0  0  0  0  0  0  0  0
    2.1434   -0.7522    0.0000 C   0  0  1  0  0  0  0  0  0  0  0  0
    2.1434    0.8978    0.0000 C   0  0  0  0  0  0  0  0  0  0  0  0
    1.4289    1.3103    0.0000 O   0  0  0  0  0  0  0  0  0  0  0  0
    2.8579   -0.3397    0.0000 C   0  0  0  0  0  0  0  0  0  0  0  0
    2.1434   -1.5772    0.0000 N   0  0  0  0  0  0  0  0  0  0  0  0
    0.7145    1.7228    0.0000 O   0  0  0  0  0  0  0  0  0  0  0  0
    2.8579    0.4853    0.0000 C   0  0  0  0  0  0  0  0  0  0  0  0
    2.1434    1.7228    0.0000 O   0  0  0  0  0  0  0  0  0  0  0  0
    3.5724   -0.7522    0.0000 O   0  0  0  0  0  0  0  0  0  0  0  0
    2.8579   -1.9897    0.0000 C   0  0  0  0  0  0  0  0  0  0  0  0
    1.4289   -1.9897    0.0000 C   0  0  0  0  0  0  0  0  0  0  0  0
    3.5724    0.8978    0.0000 C   0  0  0  0  0  0  0  0  0  0  0  0
   -0.7145    1.7228    0.0000 O   0  0  0  0  0  0  0  0  0  0  0  0
    4.2868    0.4853    0.0000 N   0  0  0  0  0  0  0  0  0  0  0  0
    3.5724    1.7228    0.0000 O   0  0  0  0  0  0  0  0  0  0  0  0
   -2.1434   -0.7522    0.0000 C   0  0  0  0  0  0  0  0  0  0  0  0
   -2.1434    0.8978    0.0000 C   0  0  0  0  0  0  0  0  0  0  0  0
   -2.8579   -0.3397    0.0000 C   0  0  0  0  0  0  0  0  0  0  0  0
   -2.8579    0.4853    0.0000 C   0  0  0  0  0  0  0  0  0  0  0  0
   -2.1434    1.7228    0.0000 O   0  0  0  0  0  0  0  0  0  0  0  0
    1.4289   -1.1647    0.0000 H   0  0  0  0  0  0  0  0  0  0  0  0
    0.0000   -1.1647    0.0000 H   0  0  0  0  0  0  0  0  0  0  0  0
   -1.4289   -1.1647    0.0000 O   0  0  0  0  0  0  0  0  0  0  0  0
   -0.7145   -1.5772    0.0000 C   0  0  0  0  0  0  0  0  0  0  0  0
  1 26  2  0  0  0  0
  1  2  1  0  0  0  0
  2 27  2  0  0  0  0
  3 11  1  0  0  0  0
  3 31  1  1  0  0  0
  3  4  1  0  0  0  0
  4 12  1  0  0  0  0
  4 13  1  1  0  0  0
  3  5  1  0  0  0  0
  4  6  1  0  0  0  0
  6 16  1  0  0  0  0
  5  7  1  0  0  0  0
  7 32  1  1  0  0  0
  7  8  1  0  0  0  0
  6  8  2  0  0  0  0
  8  9  1  0  0  0  0
  9  2  1  0  0  0  0
  9 23  2  0  0  0  0
  7 10  1  0  0  0  0
 10  1  1  0  0  0  0
 10 34  1  1  0  0  0
 10 33  1  0  0  0  0
 11 14  1  0  0  0  0
 11 15  1  1  0  0  0
 12 17  1  0  0  0  0
 12 18  2  0  0  0  0
 14 19  1  0  0  0  0
 14 17  2  0  0  0  0
 15 20  1  0  0  0  0
 15 21  1  0  0  0  0
 17 22  1  0  0  0  0
 22 24  1  0  0  0  0
 22 25  2  0  0  0  0
 26 28  1  0  0  0  0
 27 29  1  0  0  0  0
 27 30  1  0  0  0  0
 28 29  2  0  0  0  0
M  END
> <DATABASE_ID>
DB00759

> <DATABASE_NAME>
drugbank

> <SMILES>
[H][C@@]12C[C@@]3([H])C(=C(O)[C@]1(O)C(=O)C(C(N)=O)=C(O)[C@H]2N(C)C)C(=O)C1=C(O)C=CC=C1[C@@]3(C)O

> <INCHI_IDENTIFIER>
InChI=1S/C22H24N2O8/c1-21(31)8-5-4-6-11(25)12(8)16(26)13-9(21)7-10-15(24(2)3)17(27)14(20(23)30)19(29)22(10,32)18(13)28/h4-6,9-10,15,25,27-28,31-32H,7H2,1-3H3,(H2,23,30)/t9-,10-,15-,21+,22-/m0/s1

> <INCHI_KEY>
OFVLGDICTFRJMM-WESIUVDSSA-N

> <FORMULA>
C22H24N2O8

> <MOLECULAR_WEIGHT>
444.4346

> <EXACT_MASS>
444.153265754

> <JCHEM_ACCEPTOR_COUNT>
9

> <JCHEM_AVERAGE_POLARIZABILITY>
43.0269057235486

> <JCHEM_BIOAVAILABILITY>
1

> <JCHEM_DONOR_COUNT>
6

> <JCHEM_FORMAL_CHARGE>
0

> <JCHEM_GHOSE_FILTER>
0

> <JCHEM_IUPAC>
(4S,4aS,5aS,6S,12aS)-4-(dimethylamino)-3,6,10,12,12a-pentahydroxy-6-methyl-1,11-dioxo-1,4,4a,5,5a,6,11,12a-octahydrotetracene-2-carboxamide

> <ALOGPS_LOGP>
-0.56

> <JCHEM_LOGP>
-3.5476153931003833

> <ALOGPS_LOGS>
-2.52

> <JCHEM_MDDR_LIKE_RULE>
0

> <JCHEM_NUMBER_OF_RINGS>
4

> <JCHEM_PHYSIOLOGICAL_CHARGE>
-1

> <JCHEM_PKA>
4.670540135524194

> <JCHEM_PKA_STRONGEST_ACIDIC>
-2.2437223466266376

> <JCHEM_PKA_STRONGEST_BASIC>
8.243558682468391

> <JCHEM_POLAR_SURFACE_AREA>
181.61999999999998

> <JCHEM_REFRACTIVITY>
114.1883

> <JCHEM_ROTATABLE_BOND_COUNT>
2

> <JCHEM_RULE_OF_FIVE>
0

> <ALOGPS_SOLUBILITY>
1.33e+00 g/l

> <JCHEM_TRADITIONAL_IUPAC>
tetracycline

> <JCHEM_VEBER_RULE>
0

> <DRUGBANK_ID>
DB00759

> <SECONDARY_ACCESSION_NUMBERS>
APRD00572

> <DRUG_GROUPS>
approved; vet_approved

> <GENERIC_NAME>
Tetracycline

> <SYNONYMS>
(4S,4aS,5aS,12aS)-4-(Dimethylamino)-1,4,4a,5,5a,6,11,12a-octahydro-3,6,10,12,12a-pentahydroxy-6-methyl-1,11-dioxo-2-naphthacenecarboxamide; Abramycin; Anhydrotetracycline; Deschlorobiomycin; Tetracyclin; Tétracycline; Tetracycline; Tetracyclinum; Tetrazyklin; Tsiklomitsin

> <PRODUCTS>
Achromycin Ont Oph 1%; Achromycin V; Achromycin V Cap 250mg; Acnecycline; Actisite; Apo Tetra Tabs 250mg; Bismuth Subsalicylate/Metronidazole/Tetracycline Hydrochloride; Dermacline; Diabecline; Dyabetex; FIRST Marys Mouthwash Compounding; HELIDAC Therapy; Jaa Tetra Tab 250mg; Medicycline Cap 250mg; Novo-tetra 250mg; Novo-tetra Sus 125mg/5ml; Nu-tetra Capsules 250mg; Pylera; Sumycin; Tetra-abc; TetraNext; TetraStem; Tetracycline; Tetracycline 1% Onguent Ophthalmic; Tetracycline 3 percent a First Aid Antibiotic; Tetracycline Cap 250mg; Tetracycline Hydrochloride; Tetracycline-ABC; Tetracyn Cap 250mg; Viabecline; Viabecline First Aid Antibiotic; Vitastem; Vitastem-tetracycline hydrochloride

> <INTERNATIONAL_BRANDS>
Achromycin; Liquamycin

> <SALTS>
Tetracycline hydrochloride; Tetracycline phosphate

$$$$
4421
  -OEChem-10051719233D

 29 30  0     0  0  0  0  0  0999 V2000
    1.4946   -2.3100   -0.2952 O   0  0  0  0  0  0  0  0  0  0  0  0
    3.7886   -1.2526    0.4700 O   0  0  0  0  0  0  0  0  0  0  0  0
    4.0613    0.8674   -0.3778 O   0  0  0  0  0  0  0  0  0  0  0  0
   -0.0473    1.4067    0.2899 N   0  0  0  0  0  0  0  0  0  0  0  0
   -2.2994    0.5282    0.1939 N   0  0  0  0  0  0  0  0  0  0  0  0
   -0.9554    0.3262    0.1414 C   0  0  0  0  0  0  0  0  0  0  0  0
   -0.4389   -0.9651   -0.0620 C   0  0  0  0  0  0  0  0  0  0  0  0
   -0.6368    2.7231    0.4990 C   0  0  0  0  0  0  0  0  0  0  0  0
    1.3131    1.1832    0.2345 C   0  0  0  0  0  0  0  0  0  0  0  0
    1.9023   -0.0032    0.0458 C   0  0  0  0  0  0  0  0  0  0  0  0
    1.0280   -1.1914   -0.1200 C   0  0  0  0  0  0  0  0  0  0  0  0
   -1.3101   -2.0466   -0.2110 C   0  0  0  0  0  0  0  0  0  0  0  0
   -3.1185   -0.5384    0.0463 C   0  0  0  0  0  0  0  0  0  0  0  0
   -0.8821    3.4310   -0.8228 C   0  0  0  0  0  0  0  0  0  0  0  0
   -2.6788   -1.8320   -0.1561 C   0  0  0  0  0  0  0  0  0  0  0  0
    3.3637   -0.0606    0.0127 C   0  0  0  0  0  0  0  0  0  0  0  0
   -4.5842   -0.2658    0.1114 C   0  0  0  0  0  0  0  0  0  0  0  0
   -1.5619    2.6790    1.0867 H   0  0  0  0  0  0  0  0  0  0  0  0
    0.0473    3.3390    1.0976 H   0  0  0  0  0  0  0  0  0  0  0  0
    1.8907    2.0931    0.3644 H   0  0  0  0  0  0  0  0  0  0  0  0
   -0.9393   -3.0553   -0.3693 H   0  0  0  0  0  0  0  0  0  0  0  0
    0.0481    3.5434   -1.3896 H   0  0  0  0  0  0  0  0  0  0  0  0
   -1.5888    2.8751   -1.4475 H   0  0  0  0  0  0  0  0  0  0  0  0
   -1.2960    4.4290   -0.6479 H   0  0  0  0  0  0  0  0  0  0  0  0
   -3.3708   -2.6594   -0.2697 H   0  0  0  0  0  0  0  0  0  0  0  0
   -5.0678   -0.5571   -0.8265 H   0  0  0  0  0  0  0  0  0  0  0  0
   -5.0390   -0.8225    0.9369 H   0  0  0  0  0  0  0  0  0  0  0  0
   -4.7793    0.7993    0.2749 H   0  0  0  0  0  0  0  0  0  0  0  0
    4.7670   -1.3242    0.4632 H   0  0  0  0  0  0  0  0  0  0  0  0
  1 11  2  0  0  0  0
  2 16  1  0  0  0  0
  2 29  1  0  0  0  0
  3 16  2  0  0  0  0
  4  6  1  0  0  0  0
  4  8  1  0  0  0  0
  4  9  1  0  0  0  0
  5  6  1  0  0  0  0
  5 13  2  0  0  0  0
  6  7  2  0  0  0  0
  7 11  1  0  0  0  0
  7 12  1  0  0  0  0
  8 14  1  0  0  0  0
  8 18  1  0  0  0  0
  8 19  1  0  0  0  0
  9 10  2  0  0  0  0
  9 20  1  0  0  0  0
 10 11  1  0  0  0  0
 10 16  1  0  0  0  0
 12 15  2  0  0  0  0
 12 21  1  0  0  0  0
 13 15  1  0  0  0  0
 13 17  1  0  0  0  0
 14 22  1  0  0  0  0
 14 23  1  0  0  0  0
 14 24  1  0  0  0  0
 15 25  1  0  0  0  0
 17 26  1  0  0  0  0
 17 27  1  0  0  0  0
 17 28  1  0  0  0  0
M  END
> <DATABASE_ID>
DB00779

> <DATABASE_NAME>
drugbank

> <ORIGINAL_SOURCE>
PUBCHEM

> <ORIGINAL_SOURCE_URL>
https://pubchem.ncbi.nlm.nih.gov/rest/pug/compound/inchikey/MHWLWQUZZRMNGJ-UHFFFAOYSA-N/SDF?record_type=3d

> <SMILES>
CCN1C=C(C(O)=O)C(=O)C2=C1N=C(C)C=C2

> <INCHI_IDENTIFIER>
InChI=1S/C12H12N2O3/c1-3-14-6-9(12(16)17)10(15)8-5-4-7(2)13-11(8)14/h4-6H,3H2,1-2H3,(H,16,17)

> <INCHI_KEY>
MHWLWQUZZRMNGJ-UHFFFAOYSA-N

> <FORMULA>
C12H12N2O3

> <MOLECULAR_WEIGHT>
232.2353

> <EXACT_MASS>
232.08479226

> <JCHEM_ACCEPTOR_COUNT>
5

> <JCHEM_AVERAGE_POLARIZABILITY>
23.649783745099587

> <JCHEM_BIOAVAILABILITY>
1

> <JCHEM_DONOR_COUNT>
1

> <JCHEM_FORMAL_CHARGE>
0

> <JCHEM_GHOSE_FILTER>
1

> <JCHEM_IUPAC>
1-ethyl-7-methyl-4-oxo-1,4-dihydro-1,8-naphthyridine-3-carboxylic acid

> <ALOGPS_LOGP>
0.95

> <JCHEM_LOGP>
1.0082525712681194

> <ALOGPS_LOGS>
-2.00

> <JCHEM_MDDR_LIKE_RULE>
0

> <JCHEM_NUMBER_OF_RINGS>
2

> <JCHEM_PHYSIOLOGICAL_CHARGE>
-1

> <JCHEM_PKA_STRONGEST_ACIDIC>
5.950252968990619

> <JCHEM_PKA_STRONGEST_BASIC>
4.678220137258441

> <JCHEM_POLAR_SURFACE_AREA>
70.5

> <JCHEM_REFRACTIVITY>
62.8245

> <JCHEM_ROTATABLE_BOND_COUNT>
2

> <JCHEM_RULE_OF_FIVE>
1

> <ALOGPS_SOLUBILITY>
2.30e+00 g/l

> <JCHEM_TRADITIONAL_IUPAC>
nalidixic acid

> <JCHEM_VEBER_RULE>
0

$$$$

  Mrv1902 02281916142D          

 86 87  0  0  0  0            999 V2000
    6.8044   -2.0573    0.0000 N   0  0  0  0  0  0  0  0  0  0  0  0
    6.0896   -2.4673    0.0000 C   0  0  2  0  0  0  0  0  0  0  0  0
   -2.4898    0.0075    0.0000 C   0  0  1  0  0  0  0  0  0  0  0  0
   -1.7699    0.4125    0.0000 C   0  0  0  0  0  0  0  0  0  0  0  0
    6.7945    1.2274    0.0000 N   0  0  0  0  0  0  0  0  0  0  0  0
    4.6646    1.6424    0.0000 N   0  0  0  0  0  0  0  0  0  0  0  0
   -3.1998    0.4125    0.0000 N   0  0  0  0  0  0  0  0  0  0  0  0
    8.2143    0.4125    0.0000 N   0  0  0  0  0  0  0  0  0  0  0  0
    7.5094   -2.4673    0.0000 C   0  0  0  0  0  0  0  0  0  0  0  0
    8.2194   -1.2323    0.0000 N   0  0  0  0  0  0  0  0  0  0  0  0
    2.5298    1.1975    0.0000 N   0  0  0  0  0  0  0  0  0  0  0  0
    6.0896    1.6424    0.0000 C   0  0  0  0  0  0  0  0  0  0  0  0
    8.2194    1.2374    0.0000 C   0  0  0  0  0  0  0  0  0  0  0  0
    3.9447    1.2223    0.0000 C   0  0  0  0  0  0  0  0  0  0  0  0
    8.9243   -0.8173    0.0000 C   0  0  0  0  0  0  0  0  0  0  0  0
    2.5198    0.3824    0.0000 C   0  0  0  0  0  0  0  0  0  0  0  0
   -3.9147    0.0075    0.0000 C   0  0  0  0  0  0  0  0  0  0  0  0
    5.2745   -2.4622    0.0000 C   0  0  0  0  0  0  0  0  0  0  0  0
    5.3796    1.2223    0.0000 C   0  0  1  0  0  0  0  0  0  0  0  0
    7.5094    1.6424    0.0000 C   0  0  2  0  0  0  0  0  0  0  0  0
    0.3749    0.0075    0.0000 C   0  0  0  0  0  0  0  0  0  0  0  0
   -1.0499    0.0075    0.0000 N   0  0  0  0  0  0  0  0  0  0  0  0
    1.0949    0.3974    0.0000 N   0  0  0  0  0  0  0  0  0  0  0  0
    8.2194   -2.0473    0.0000 C   0  0  1  0  0  0  0  0  0  0  0  0
    3.2397    1.6273    0.0000 C   0  0  1  0  0  0  0  0  0  0  0  0
    8.9243    0.0075    0.0000 C   0  0  2  0  0  0  0  0  0  0  0  0
    1.7998   -0.0225    0.0000 C   0  0  1  0  0  0  0  0  0  0  0  0
   -5.3546    0.0075    0.0000 N   0  0  0  0  0  0  0  0  0  0  0  0
   -0.3449    0.4125    0.0000 C   0  0  1  0  0  0  0  0  0  0  0  0
    4.8545   -3.1722    0.0000 N   0  0  0  0  0  0  0  0  0  0  0  0
   -4.6347    0.4175    0.0000 C   0  0  1  0  0  0  0  0  0  0  0  0
   -6.0646    0.4125    0.0000 C   0  0  0  0  0  0  0  0  0  0  0  0
   -1.7699    1.2374    0.0000 O   0  0  0  0  0  0  0  0  0  0  0  0
    7.5094   -3.2923    0.0000 O   0  0  0  0  0  0  0  0  0  0  0  0
    8.9343    1.6424    0.0000 O   0  0  0  0  0  0  0  0  0  0  0  0
    6.0896    2.4673    0.0000 O   0  0  0  0  0  0  0  0  0  0  0  0
    3.9597    0.3974    0.0000 O   0  0  0  0  0  0  0  0  0  0  0  0
    9.6443   -1.2323    0.0000 O   0  0  0  0  0  0  0  0  0  0  0  0
    3.2347   -0.0375    0.0000 O   0  0  0  0  0  0  0  0  0  0  0  0
    5.3796    0.3974    0.0000 C   0  0  0  0  0  0  0  0  0  0  0  0
   -3.9147   -0.8173    0.0000 O   0  0  0  0  0  0  0  0  0  0  0  0
    0.3749   -0.8273    0.0000 O   0  0  0  0  0  0  0  0  0  0  0  0
    4.8596   -1.7423    0.0000 O   0  0  0  0  0  0  0  0  0  0  0  0
    7.4995    2.4673    0.0000 C   0  0  0  0  0  0  0  0  0  0  0  0
    6.0896   -3.2923    0.0000 C   0  0  2  0  0  0  0  0  0  0  0  0
   -2.4898   -0.8273    0.0000 C   0  0  2  0  0  0  0  0  0  0  0  0
   -6.0646    1.2374    0.0000 O   0  0  0  0  0  0  0  0  0  0  0  0
    1.7848   -0.8474    0.0000 C   0  0  0  0  0  0  0  0  0  0  0  0
    4.0296   -3.1722    0.0000 C   0  0  0  0  0  0  0  0  0  0  0  0
    8.9394   -2.4673    0.0000 C   0  0  0  0  0  0  0  0  0  0  0  0
    9.6443    0.4125    0.0000 C   0  0  0  0  0  0  0  0  0  0  0  0
    3.2247    2.4522    0.0000 C   0  0  0  0  0  0  0  0  0  0  0  0
   -0.3449    1.2374    0.0000 C   0  0  0  0  0  0  0  0  0  0  0  0
   -4.6347    1.2424    0.0000 C   0  0  0  0  0  0  0  0  0  0  0  0
    6.0896   -0.0075    0.0000 C   0  0  0  0  0  0  0  0  0  0  0  0
   11.0692    0.4125    0.0000 N   0  0  0  0  0  0  0  0  0  0  0  0
   -3.9147    2.4823    0.0000 N   0  0  0  0  0  0  0  0  0  0  0  0
    0.3749    2.4823    0.0000 N   0  0  0  0  0  0  0  0  0  0  0  0
    9.6593   -3.6972    0.0000 N   0  0  0  0  0  0  0  0  0  0  0  0
    2.4898    3.6822    0.0000 N   0  0  0  0  0  0  0  0  0  0  0  0
    5.3846   -3.7122    0.0000 O   0  0  0  0  0  0  0  0  0  0  0  0
   -1.7699   -1.2374    0.0000 O   0  0  0  0  0  0  0  0  0  0  0  0
    8.2194    2.8873    0.0000 C   0  0  0  0  0  0  0  0  0  0  0  0
   -6.7795    0.0075    0.0000 C   0  0  0  0  0  0  0  0  0  0  0  0
   10.3592    0.0075    0.0000 C   0  0  0  0  0  0  0  0  0  0  0  0
    2.5048    2.8572    0.0000 C   0  0  0  0  0  0  0  0  0  0  0  0
    8.9394   -3.2923    0.0000 C   0  0  0  0  0  0  0  0  0  0  0  0
   -3.9147    1.6574    0.0000 C   0  0  0  0  0  0  0  0  0  0  0  0
    0.3749    1.6574    0.0000 C   0  0  0  0  0  0  0  0  0  0  0  0
    6.8095   -3.7122    0.0000 C   0  0  0  0  0  0  0  0  0  0  0  0
   -3.1998   -1.2374    0.0000 C   0  0  0  0  0  0  0  0  0  0  0  0
    6.0896   -0.8423    0.0000 C   0  0  0  0  0  0  0  0  0  0  0  0
    6.8044    0.4025    0.0000 C   0  0  0  0  0  0  0  0  0  0  0  0
   -9.6443    0.0075    0.0000 C   0  0  0  0  0  0  0  0  0  0  0  0
   -7.4895    0.4125    0.0000 C   0  0  0  0  0  0  0  0  0  0  0  0
  -10.3543    0.4125    0.0000 C   0  0  0  0  0  0  0  0  0  0  0  0
   -8.9243    0.4125    0.0000 C   0  0  0  0  0  0  0  0  0  0  0  0
    8.9394    2.4723    0.0000 C   0  0  0  0  0  0  0  0  0  0  0  0
    8.2194    3.7122    0.0000 C   0  0  0  0  0  0  0  0  0  0  0  0
   -8.2044    0.0075    0.0000 C   0  0  0  0  0  0  0  0  0  0  0  0
   -9.6443   -0.8273    0.0000 C   0  0  0  0  0  0  0  0  0  0  0  0
  -11.0692   -0.0024    0.0000 C   0  0  0  0  0  0  0  0  0  0  0  0
    6.8044   -1.2473    0.0000 C   0  0  0  0  0  0  0  0  0  0  0  0
    7.5145   -0.0024    0.0000 C   0  0  0  0  0  0  0  0  0  0  0  0
    7.5244   -0.8324    0.0000 C   0  0  0  0  0  0  0  0  0  0  0  0
    7.1279   -3.0687    0.0000 H   0  0  0  0  0  0  0  0  0  0  0  0
  2  1  1  0  0  0  0
  3  4  1  0  0  0  0
  4 22  1  0  0  0  0
  5 20  1  0  0  0  0
  6 14  1  0  0  0  0
  3  7  1  6  0  0  0
  8 26  1  0  0  0  0
  9  1  1  0  0  0  0
 10 24  1  0  0  0  0
 11 16  1  0  0  0  0
 12  5  1  0  0  0  0
 13  8  1  0  0  0  0
 14 25  1  0  0  0  0
 15 10  1  0  0  0  0
 16 27  1  0  0  0  0
 17  7  1  0  0  0  0
 18  2  1  0  0  0  0
 19 12  1  0  0  0  0
 20 13  1  0  0  0  0
 21 23  1  0  0  0  0
 29 22  1  1  0  0  0
 27 23  1  6  0  0  0
 24  9  1  0  0  0  0
 25 11  1  0  0  0  0
 26 15  1  0  0  0  0
 27 48  1  0  0  0  0
 31 28  1  1  0  0  0
 29 21  1  0  0  0  0
 30 18  1  0  0  0  0
 31 17  1  0  0  0  0
 32 28  1  0  0  0  0
 33  4  2  0  0  0  0
 34  9  2  0  0  0  0
 35 13  2  0  0  0  0
 36 12  2  0  0  0  0
 37 14  2  0  0  0  0
 38 15  2  0  0  0  0
 39 16  2  0  0  0  0
 19 40  1  1  0  0  0
 41 17  2  0  0  0  0
 42 21  2  0  0  0  0
 43 18  2  0  0  0  0
 20 44  1  1  0  0  0
 45  2  1  0  0  0  0
 46  3  1  0  0  0  0
 47 32  2  0  0  0  0
 48 49  1  0  0  0  0
 49 30  1  0  0  0  0
 24 50  1  1  0  0  0
 26 51  1  1  0  0  0
 25 52  1  6  0  0  0
 29 53  1  0  0  0  0
 31 54  1  0  0  0  0
 55 40  1  0  0  0  0
 56 65  1  0  0  0  0
 57 68  1  0  0  0  0
 58 69  1  0  0  0  0
 59 67  1  0  0  0  0
 60 66  1  0  0  0  0
 45 61  1  1  0  0  0
 46 62  1  6  0  0  0
 63 44  1  0  0  0  0
 64 32  1  0  0  0  0
 65 51  1  0  0  0  0
 66 52  1  0  0  0  0
 67 50  1  0  0  0  0
 68 54  1  0  0  0  0
 69 53  1  0  0  0  0
 70 45  1  0  0  0  0
 71 46  1  0  0  0  0
 72 55  2  0  0  0  0
 73 55  1  0  0  0  0
 74 77  1  0  0  0  0
 75 64  1  0  0  0  0
 76 74  1  0  0  0  0
 77 80  1  0  0  0  0
 78 63  1  0  0  0  0
 79 63  1  0  0  0  0
 80 75  1  0  0  0  0
 81 74  1  0  0  0  0
 82 76  1  0  0  0  0
 83 72  1  0  0  0  0
 84 73  2  0  0  0  0
 85 83  2  0  0  0  0
  6 19  1  0  0  0  0
 85 84  1  0  0  0  0
  2 86  1  6  0  0  0
M  END
> <DATABASE_ID>
DB00781

> <DATABASE_NAME>
drugbank

> <SMILES>
[H][C@]1(NC(=O)[C@H](CCN)NC(=O)[C@H](CCN)NC(=O)[C@H](CC(C)C)NC(=O)[C@@H](CC2=CC=CC=C2)NC(=O)[C@@H](CCN)NC(=O)[C@H](CCNC1=O)NC(=O)[C@H](CCN)NC(=O)[C@@H](NC(=O)[C@H](CCN)NC(=O)CCCCC(C)CC)[C@@H](C)O)[C@@H](C)O

> <INCHI_IDENTIFIER>
InChI=1S/C56H98N16O13/c1-7-32(4)13-11-12-16-44(75)63-36(17-23-57)51(80)72-46(34(6)74)56(85)68-39(20-26-60)48(77)67-41-22-28-62-55(84)45(33(5)73)71-52(81)40(21-27-61)65-47(76)37(18-24-58)66-53(82)42(29-31(2)3)69-54(83)43(30-35-14-9-8-10-15-35)70-49(78)38(19-25-59)64-50(41)79/h8-10,14-15,31-34,36-43,45-46,73-74H,7,11-13,16-30,57-61H2,1-6H3,(H,62,84)(H,63,75)(H,64,79)(H,65,76)(H,66,82)(H,67,77)(H,68,85)(H,69,83)(H,70,78)(H,71,81)(H,72,80)/t32?,33-,34-,36+,37+,38-,39+,40+,41+,42+,43-,45+,46+/m1/s1

> <INCHI_KEY>
WQVJHHACXVLGBL-BPJDFBQWSA-N

> <FORMULA>
C56H98N16O13

> <MOLECULAR_WEIGHT>
1203.499

> <EXACT_MASS>
1202.74992728

> <JCHEM_ACCEPTOR_COUNT>
18

> <JCHEM_ATOM_COUNT>
183

> <JCHEM_AVERAGE_POLARIZABILITY>
127.40228236438216

> <JCHEM_BIOAVAILABILITY>
0

> <JCHEM_DONOR_COUNT>
18

> <JCHEM_FORMAL_CHARGE>
0

> <JCHEM_GHOSE_FILTER>
0

> <JCHEM_IUPAC>
N-[(1S)-3-amino-1-{[(1S,2R)-1-{[(1S)-3-amino-1-{[(3S,6S,9S,12S,15R,18R,21S)-6,9,18-tris(2-aminoethyl)-15-benzyl-3-[(1R)-1-hydroxyethyl]-12-(2-methylpropyl)-2,5,8,11,14,17,20-heptaoxo-1,4,7,10,13,16,19-heptaazacyclotricosan-21-yl]carbamoyl}propyl]carbamoyl}-2-hydroxypropyl]carbamoyl}propyl]-6-methyloctanamide

> <ALOGPS_LOGP>
-0.89

> <JCHEM_LOGP>
-7.2491706079999965

> <ALOGPS_LOGS>
-4.21

> <JCHEM_MDDR_LIKE_RULE>
0

> <JCHEM_NUMBER_OF_RINGS>
2

> <JCHEM_PHYSIOLOGICAL_CHARGE>
5

> <JCHEM_PKA>
12.036667759940395

> <JCHEM_PKA_STRONGEST_ACIDIC>
11.57313014624903

> <JCHEM_PKA_STRONGEST_BASIC>
10.230227871316952

> <JCHEM_POLAR_SURFACE_AREA>
490.65999999999985

> <JCHEM_REFRACTIVITY>
313.21549999999996

> <JCHEM_ROTATABLE_BOND_COUNT>
29

> <JCHEM_RULE_OF_FIVE>
0

> <ALOGPS_SOLUBILITY>
7.44e-02 g/l

> <JCHEM_TRADITIONAL_IUPAC>
N-[(1S)-3-amino-1-{[(1S,2R)-1-{[(1S)-3-amino-1-{[(3S,6S,9S,12S,15R,18R,21S)-6,9,18-tris(2-aminoethyl)-15-benzyl-3-[(1R)-1-hydroxyethyl]-12-(2-methylpropyl)-2,5,8,11,14,17,20-heptaoxo-1,4,7,10,13,16,19-heptaazacyclotricosan-21-yl]carbamoyl}propyl]carbamoyl}-2-hydroxypropyl]carbamoyl}propyl]-6-methyloctanamide

> <JCHEM_VEBER_RULE>
0

> <DRUGBANK_ID>
DB00781

> <SECONDARY_ACCESSION_NUMBERS>
APRD01190

> <DRUG_GROUPS>
approved; vet_approved

> <GENERIC_NAME>
Polymyxin B

> <SYNONYMS>
Polimixina B; Polymyxin B; Polymyxine B; Polymyxinum B

> <PRODUCTS>
10 Person ANSI; 25 Person ANSI; 4032 First Aid Kit; 4042 First Aid Kit; 4050 First Aid Kit; 4064 First Aid Kit; 4065 First Aid Kit; 4066 First Aid Kit; 4067 First Aid Kit; 4125 First Aid Kit; 4135 First Aid Kit; 4138 First Aid Kit; 4150 First Aid Kit; 4152 First Aid Kit; 4155 First Aid Kit; 4166 First Aid Kit; 4167 First Aid Kit; 4168 First Aid Kit; 4196 First Aid Kit; 4197 First Aid Kit; 4198 First Aid Kit; 4199 First Aid Kit; 4200 First Aid Kit; 4201 First Aid Kit; 4202 First Aid Kit; 4209 First Aid Kit; 4211 First Aid Kit; 4212 First Aid Kit; 4215 First Aid Kit; 4216 First Aid Kit; 4219 First Aid Kit; 4221 First Aid Kit; 4222 First Aid Kit; 4229 First Aid Kit; 4230 First Aid Kit; 4231First Aid Kit; 4232 First Aid Kit; 4234 First Aid Kit; 4235 First Aid Kit; 4239 First Aid Kit; 4240 First Aid Kit; 4241 First Aid Kit; 4242 First Aid Kit; 4245 First Aid Kit; 4248 First Aid Kit; 4249 First Aid Kit; 4250 First Aid Kit; 4252 First Aid Kit; 4253 First Aid Kit; 4254 First Aid Kit; 4255 First Aid Kit; 4271 First Aid Kit; 4272 First Aid Kit; 4274 First Aid Kit; 4276 First Aid Kit; 4277 First Aid Kit; 4279 First Aid Kit; 4280 First Aid Kit; 4281 First Aid Kit; 4282 First Aid Kit; 4283 First Aid Kit; 4284 First Aid Kit; 4287 First Aid Kit; 4289 First Aid Kit; 4291 First Aid Kit; 4292 First Aid Kit; 4293 First Aid Kit; 4295 First Aid Kit; 4299 First Aid Kit; 4303 First Aid Kit; 4304 First Aid Kit; 4305 First Aid Kit; 4314 First Aid Kit; 4315 First Aid Kit; 4317 First Aid Kit; 4318 First Aid Kit; 4319 First Aid Kit; 4329 First Aid Kit; 4334 First Aid Kit; 4336 First Aid Kit; 4338 First Aid Kit; 4339 First Aid Kit; 4346 First Aid Kit; 4355 First Aid Kit; 4356 First Aid Kit; 4357 First Aid Kit; 4358 First Aid Kit; 4361 First Aid Kit; 4362 First Aid Kit; 4363 First Aid Kit; 4364 First Aid Kit; 4365 First Aid Kit; 4367 First Aid Kit; 4379 First Aid Kit; 4380 First Aid Kit; 4381 First Aid Kit; 4382 First Aid Kit; 4383 First Aid Kit; 4384 First Aid Kit; 4387 First Aid Kit; 4388 First Aid Kit; 4389 First Aid Kit; 4393 First Aid Kit; 4398 First Aid Kit; 4399 First Aid Kit; 50 Person ANSI; 7 Select First Aid Triple Antibiotic; ACME FIRST AID Contains 404 PIECES; ACME Small Cuts and Burns; AK-Trol; ANCALIMA First Aid; ARC FIRST AID Contains 1000 PIECES; ARC FIRST AID Contains 303 PIECES; ARC FIRST AID Contains 303 PIECES HARDCASE; ARC FIRST AID Contains 404 PIECES; ARC FIRST AID Emergency Preparedness Contains 167 PIECES; AVON HeXashield Triple Antibiotic with Pain Relief; Acme Home/Office/Auto Kit; Adventure First Aid .5 Tin; Adventure Medical Kits 1-2 Person First Aid; Adventure Medical Kits 1-2 Person National Ski Patrol First Aid; Adventure Medical Kits 1-4 Person First Aid; Aerosoothe; Aerosporin Sterile Powder; Afassco Triple Antibiotic; Aftate Triple Antibiotic; Ak-poly-bac; American Red Cross First Aid Kit; Antibiotic; Antibiotic Application; Antibiotic Cold Sore Ointment; Antibiotic Cream; Antibiotic Cream Plus Pain Relief; Antibiotic Cream Plus Pain Relief for Kids; Antibiotic Cream for Kids; Antibiotic Drops; Antibiotic Ear (Neo/Polym/HC); Antibiotic Ear Drops; Antibiotic Eye Drops; Antibiotic Lozenges; Antibiotic Maximum Strength; Antibiotic Ointment; Antibiotic Ointment USP; Antibiotic Original Strength; Antibiotic Plus Pain Relief; Antibiotic Plus Pain Relief Cream; Antibiotic Plus Pain Relief Maximum Strength; Antibiotic and Pain Relief; Antibiotic and Pain Relief Maximum Strength; Antibiotic and pain relief maximum strength; Antibiotic plus Pain Relief; Antibiotic, Pain and Scar; Antibiotique Onguent; Atopalm First Aid Triple Antibiotic; Atopalm First Aid Triple Antibiotic Protection Moisturizing and Pain Relief; Atopalm First Aid Triple Antibiotic plus Pain Relief; BLUE ACME SLEEVE FIRST AID Contains 1000 PIECES; Bacimyxin Onguent; Bacitracin; Bacitracin Zinc; Bacitracin Zinc and Polymyxin B Sulfate; Bacitracin Zinc, Neomycin Sulfate and Polymyxin B Sulfate; Band-aid Brand Adhesive Bandages Plus Antibiotic; Band-aid-S-1; Basic Care First Aid Antibiotic; Basic Care First Aid Antibiotic Plus Pain Relief; Berkley and Jensen Triple Antibiotic; Bi-Mart Triple Antibiotic; Bi-Mart Triple Antibiotic plus Pain Relief; Bioderm Ointment; Biotic-Plus; Budpak Triple Antibiotic Maximum Strength; Bus and Classroom Yellow; CAREONE Antibiotic Plus Pain Relief; CAREONE Triple Antibiotic; CVP Triple Antibiotic; CVS All Purpose First Aid Kit; CVS Cuts and Scrapes Refill Pack; CVS First Aid Kit; CVS Health All Purpose Kit; CVS Health Healing on the Go Kit; CVS Health Medication and Topical Refill Pouch; CVS Health Sports Kit; CVS Health Triple Antibiotic; CVS Health Triple Antibiotic with Pain Relief; CVS Triple Antibiotic; Cardinal Health First Aid Antibiotic; Care Bus and Classroom Yellow; Care One Maximum Strength First Aid Antibiotic; CareALL Triple Antibiotic; CareALL Triple Antibiotic plus Pain Relief; Careone Original Strength Triple Antibiotic; Careone Triple Antibiotic; Casporyn HC; Childrens Double Antibiotic with Pain Relief; Circle K Triple Antibiotic; Complete Antibiotic Ointment; Cortisporin; Cortisporin Ophthalmic; Cortomycin; Crane Safety Triple Antibiotic; Cuadriderma; Curad Maximum Strength Triple Antibiotic; DAYMARK FAK-35 First Aid; DG Health Antibiotic; DG Health Poly Antibiotic; DG Health Triple Antibiotic; DG Poly Antibiotic First Aid Antibiotic; Dg Health Triple Antibiotic; Dioptrol Ointment; Dioptrol Suspension; Diosporin Ointment; Double Antibiotic; Double Antibiotic Plus Pain Relief Maximum Strength; Doubleantibioticointment; Dr Bells Pomade; EQUATE Triple Antibiotic; Easy Care First Aid; Easy Care First Aid - All Purpose; Easy Care First Aid Chest - Home and Workshop; Easy Care First Aid Kit - Outdoor and Travel; Easy Care First Aid Kit - Sports and Travel; Easy Care First Aid Triple Antibiotic; Ecolab Triple Antibiotic; Emergency Preparedness; Equaline Antibiotic Plus Pain Relief; Equaline Antibiotic Plus Pain Relief for Kids; Equaline First Aid Antibiotic; Equaline Triple Antibiotic; Equaline Triple Antibiotic Plus; Equate Antibiotic Plus Pain Relief; Equate First Aid Antibiotic; Equate First Aid Antibiotic Pain Relieving; Equate First Aid Antibiotic Plus Pain Relief; Eurosporin; Exchange Select First Aid Triple Anitbiotic Pain Relieving; Exchange Select triple antibiotic; FAK Care4 Bus and School Yellow ORM D; FAK Large Office First Aid kit; FIRST AID Contains 1000 PIECES; FIRST AID Contains 303 PIECES; FIRST AID Contains 303 PIECES HARDCASE; FIRST AID Contains 404 PIECES; Face Values Triple Antibiotic; Family Care Antibiotic; Family Care Triple Antibiotic; Family Care Triple Antibiotic Plus Pain Relief; Family Wellness; Family Wellness Antiseptic and Pain Relief; Family Wellness First Aid Antibiotic; Family Wellness Original; Family Wellness Pain Scar Itch; Family Wellness Plus Pain Relief; Family Wellness Triple Antibiotic Plus Pain Relief; Family wellness; First Aid Antibiotic; First Aid Antibiotic Ointment; First Aid Antibiotic Plus Pain Relief Maximum Strength; First Aid Only Triple Antibiotic; First Aid Pocket Pack - 40 Pieces; First Aid Triple Antibiotic; First Aid Triple Antibiotic Pain and Scar; First Aid Triple Antibiotic and Pain Relief Maximum Strength; First Aid Triple Antibiotic with Pain Reliever; First Aid Value Pack - 77 Pieces; Fonow; Formucare Triple Antibiotic Original Strength; Fulton Street Market Triple Antibiotic Original Strength; GENUINE FIRST AID Emergency Preparedness Contains 167 PIECES HARDCASE; GENUINE FIRST AID Emergency Preparedness Contains 167 Pieces; GFA First Aid; GFA First Aid 16 Unit Metal Case; GFA First Aid 24 Unit Metal Case; GFA First Aid 36 Unit Metal Case; GFA First Aid 75 Person Metal Case; GFA First Aid Kit Essentials - 33 Pieces; GLINT TRIPLE ANTIBIOTIC First Aid; Genuine First Aid - Auto First Aid; Genuine First Aid - Home First Aid; Genuine First Aid Industrial First Aid; Genuine Triple Antibiotic; Gercillin; Good Neighbor Pharmacy Antibiotic and Pain Relief; Good Neighbor Pharmacy Emergency Preparedness and First Aid Contains 167 Pieces; Good Neighbor Pharmacy First Aid; Good Neighbor Pharmacy Triple Antibiotic; Good Neighbor Pharmacy Triple Antibiotic Plus Pain Relief; Good Sense First Aid Antibiotic; Good Sense Triple Antibiotic; Good Sense Triple Antibiotic and Pain Relief; GoodSense Antibiotic plus Pain Relief; Goodsense First Aid Antibiotic; Green Guard Triple Antibiotic; H E Buddy Antibiotic Maximum Strength Plus Pain Relief; Harris Teeter Poly Antibiotic; Harris Teeter Triple Antibioitic; Harris Teeter Triple Antibiotic Plus Pain Relief; Healthy Accents Triple Antibiotic; Healthy Accents triple antibiotic; Jampolycin; K-Mart SmartSense First Aid Contains 303 Pieces; Kaiser Permanente Double antibiotic; Kit Breakroom Office First Aid; Kit Large Office First Aid; LEADER Triple Antibiotic; Lanabiotic Ont; Large ANSI First Aid Kit; Laryngets Loz; Leader First Aid Antibiotic; Leader Triple Antibiotic; Leader Triple Antibiotic Plus; Leader Triple Antibiotic and Pain Relief; Lidomyxin; Lidosporin Cream; Lidosporin Ear Drops; Lincoln; Live Better Triple Antibiotic; Live Better Triple Antibiotic plus Pain Relief; LiveBetter Antibiotic Plus Pain Relief; Lucky SuperSoft First Aid; MAKESENSE First Aid; Major Triple Antibiotic; Market Basket First Aid Triple Antibiotic; Maxitrol; Medi-First; Medi-First Plus Triple Antibiotic; Medi-First Triple Antibiotic; MediChoice Triple Antibiotic; Medpride First Aid; Meijer Antibiotic Plus Pain Relief; Meijer Triple Antibiotic Plus; Methedex; Mountain Series Weekender Medical; Multi Antibiotic with Pain Relief Maximum Strength; NATUREPLEX ANTIBIOTIC plus PAIN RELIEF; NEOMYCIN and POLYMYXIN B SULFATES and HYDROCORTISONE; NEOSPORIN Plus BURN RELIEF; Neo Bace Ophthalmic Ointment; Neo Polycin; Neo Polycin HC; Neo-poly-bac; Neo-poly-bac Hydro; Neo-poly-dex; Neo-polycin; Neo-polycin HC; Neocidin; Neomycin Polymyxin B Sulfates and Dexamethasone; Neomycin Sulfate, Polymyxin B Sulfate and Bacitracin Zinc; Neomycin Sulfate, Polymyxin B Sulfate and Dexamethasone; Neomycin and Polymyxin B Sulfates; Neomycin and Polymyxin B Sulfates and Bacitracin Zinc; Neomycin and Polymyxin B Sulfates and Bacitracin Zinc with Hydrocortisone Acetate; Neomycin and Polymyxin B Sulfates and Dexamethasone; Neomycin and Polymyxin B Sulfates and Gramicidin; Neomycin and Polymyxin B Sulfates and Hydrocortisone; Neomycin and Polymyxin B Sulfates and Hydrocortisone Otic Suspension; Neomycin and Polymyxin B Sulfates, Bacitracin Zinc and Hydrocortisone; Neomycin and Polymyxin B Sulfates, Bacitracin Zinc, and Hydrocortisone; Neomycin and Polymyxin B Sulfates, and Bacitracin Zinc; Neomycin and Polymyxin B sulfates, Bacitracin zinc; Neomycin and polymyxin B sulfates and bacitracin zinc; Neomycin, Polymyxin B Sulfates and Hydrocortisone; Neosporin; Neosporin Antibiotic Cream; Neosporin Eye-ear Solution; Neosporin G.U.; Neosporin Irrigating Solution; Neosporin Kids Plus Pain Relief; Neosporin Ointment; Neosporin Ophthalmic Ointment; Neosporin Original; Neosporin Pain Itch Scar; Neosporin Plus Pain Relief; Neosporin Plus Pain Relief First Aid Antibiotic Pain Relieving For Kids; Neosporin Plus Pain Relief First Aid Antibiotic/Pain Relieving; Neosporin Plus Pain Relief Neo To Go First Aid Antibiotic Pain Relieving; Neosporin Plus Pain Relief Neo to Go; Neotopic Ointment; North Triple Antibiotic; Npd; OLP Triple Antibiotic; OLP Triple Antibiotic Plus; Odan-spor; Odan-spor-HC; Odan-trol; Omnisporin; Onguent Antibiotique; Ophthocort Ont; Optimyxin; Optimyxin Ophthalmic Ointment; Optimyxin Plus; Ori-power; Original Antibiotic Cream; Our Family Triple Antibiotic; Ozonol Antibiotic Plus - Ointment; Ozonol Antibiotic Plus Ont; Ozonol Antibiotics Plus; PMS-polytrimethoprim; POLYMYXIN B SULFATE and TRIMETHOPRIM SULFATE; Paraid Triple Antibiotic; Pediotic; Penimixcina; Pentrexcilina Triple Antibiotic; Pentrexcilina Triple Antibiotic Plus Pain Relief; Polvos de Sulpha First Aid Antibiotic; Poly Antibiotic; Poly Bacitracin; Poly-pred; Polycidin Eye, Ear Drops; Polycidin Ophthalmic Ointment; Polycin; Polyderm Antibiotic Ointment; Polyderm Ointment USP; Polymyxin B; Polymyxin B Sulfate and Trimethoprim; Polymyxin B Sulfate and Trimethoprim Sulfate; Polymyxin B for Injection USP; Polysporin; Polysporin Antibiotic Burn Cream; Polysporin Antibiotic Cream; Polysporin Antibiotic Ointment; Polysporin Burn Formula Cream; Polysporin Cold Sore Ointment; Polysporin Complete; Polysporin Cream; Polysporin Eye and Ear Drops Sterile; Polysporin First Aid Antibiotic; Polysporin Plus Pain Relief; Polysporin Plus Pain Relief Ear Drops; Polysporin Singles; Polysporin Sterile Ophthalmic Ointment; Polysporin Topical First Aid Antibiotic Ointment; Polysporin Triple Antibiotic Ointment; Polysporin for Kids; Polysporin for Stitches; Polytopic; Polytopic Cream; Polytopic Ont; Polytrim; Polytrim Ophthalmic Solution; Pomada De La Campana Triple Antibiotic Pain Relief; Premier Value Antibiotic Plus Pain Relief; Premier Value Max Strength Antibiotic plus pain relief; Premier Value Triple Antibiotic; Premier Value Triple Antibiotic Plus; ProCoMycin; Procure Triple Antibiotic Cream plus Active Manuka Honey; ProcureTriple Antibiotic Triple Antibiotic; Publix antibiotic; Publix antibiotic plus Pain Relief; Publix antibiotic plus pain relief; Pulmosirum Pastille; Quality Choice Maximum Strength Triple Antibiotic; Quality Choice Triple Antibiotic; Quality Choice Triple Antibiotic Plus Pain Reliever; ReCellTis; ReCellTis Wound Cream; Ready America First Aid Outdoor- 107 Pieces; Ready America First Aid Pocket - 33 Pieces; Redicare Triple Antibiotic First Aid; Refill 2; Repara Triple Antibiotic; Safeway Antibiotic Plus Pain Relief; Sandoz Cortimyxin; Sandoz Polytrimethoprim; Schein Triple Antibiotic; Select Medical Products Triple Antibiotic; Sheffield Triple Antibiotic; Sheffield Triple Antibiotic Plus Pain Relief; ShopRite Triple Antibiotic; Shopko Antibiotic Plus Pain Relief; Shopko Triple Antibiotic; Shopko Triple Antibiotic Plus; Shopko Triple Antibiotic plus Pain Relief; Shoprite Triple Antibiotic; Signature Care First Aid Antibiotic; Signature Care Triple Antibiotic; Simply Neosporin First Aid Antibiotic; Small Cuts and Burns; Smart Sense Antibiotic Maximum Strength; Smart Sense Triple Antibiotic; Smart Sense antibiotic plus pain relief; Smart Sense triple antibitotic plus pain relief; Standard ANSI First Aid; Statrol; Sterisporin; Sunmark Antibiotic Plus Pain Relief; Sunmark Double Antibiotic; Sunmark Triple Antibiotic; Sunmark Triple Antibiotic Plus Pain Relief; Sx1 Medicated Post-Operative System; Synalar Bi-otic Solution; Terramycin; The New Parent First Aid; TheraPlusPlus Plus; TopCare Antibiotic Plus Pain Relief; TopCare Triple Antibiotic Plus Pain Relief; Topcare Antibiotic; Topcare Triple Antibiotic; Topical Antibiotic Ointment; Travel Savvy First Aid Triple Antibiotic; Travel Savvy Triple Antibiotic; Triastem Topical Antibiotic; Tribiotic; Tribioticlc Lc Lc; Trimethoprim sulfate and Polymyxin B sulfate; Triple Antibiotic; Triple Antibiotic CVS; Triple Antibiotic Extra Strength; Triple Antibiotic First Aid; Triple Antibiotic First Aid Antibiotic; Triple Antibiotic GRX; Triple Antibiotic HC; Triple Antibiotic Maximum Strength; Triple Antibiotic Ointment; Triple Antibiotic Plus; Triple Antibiotic Plus Maximum Strength; Triple Antibiotic Plus Pain Relief; Triple Antibiotic Plus Pain Relief Maximum Strength; Triple Antibiotic and Pain Relief Maximum Strength; Triple Antibiotic plus Pain Relief Maximum Strength; Triple Antibiotic plus pain relief; Triple Antibiotic with Pain Relief; Triple Antibiotic with Pain Relief Maximum Strength; Triple Antiobiotic; Tripleantibioticapainscaritch; Tripleantibioticointmentandpainrelief; UEC Medical First Aid Antibiotic; ULTRA SEAL Triple Antibiotic; Up and Up Antibiotic; Up and Up Antibiotic Plus Pain Relief; Up and Up First Aid Antibiotic Pain Relieving; Up and Up multi action antibiotic; WELL AT WALG TRIPLE ANTIBIOTIC Well at Walgreens; Wal-Sporin; Walgreens Maximum Strength Triple Antibiotic With Pain Relief; Walgreens Triple Antibiotic; Walgreens Wal-Sporin First Aid Antibiotic; WalgreensTriple Antibiotic; Water-Jel 3-in-1 Antibiotic; Welly Adventure First Aid Kit; Welly Bravery First Aid Kit; Welly Bravery Triple Antibiotic; Welly Bravery Triple Antibiotic with Pain Relief; Welly Human Repair Kit; Welly Quick Fix Kit; Welly Superhero Supplies Kit; Western Family Antibiotic Plus Pain Relief; Western Family Triple Antibiotic; Western Family Triple Antibiotic plus Pain Relief; WinCo Maximum Strength Triple Antibiotic; WinCo Original Strength Triple Antibiotic; meijer Antibiotic Plus Pain Relief; meijer Triple Antibiotic; meijer Triple Antibiotic plus Pain Relief

> <INTERNATIONAL_BRANDS>
Aerosporin; Metamyxin; Polomyxin B; Poly-Rx; Polyfax; Polyxx

> <SALTS>
Polymyxin B sulfate

$$$$
2022
  -OEChem-07121917233D

 27 28  0     0  0  0  0  0  0999 V2000
    2.5840    0.3522    0.0637 O   0  0  0  0  0  0  0  0  0  0  0  0
   -3.7999    0.9358   -0.9813 O   0  0  0  0  0  0  0  0  0  0  0  0
    4.2188   -1.4320   -1.3409 O   0  0  0  0  0  0  0  0  0  0  0  0
    0.4335    0.9970    0.6027 N   0  0  0  0  0  0  0  0  0  0  0  0
   -0.6945   -1.1578    0.5860 N   0  0  0  0  0  0  0  0  0  0  0  0
   -1.2428    2.2145   -0.2604 N   0  0  0  0  0  0  0  0  0  0  0  0
   -2.9368   -1.0947   -0.2715 N   0  0  0  0  0  0  0  0  0  0  0  0
   -1.9471   -3.0975    0.4806 N   0  0  0  0  0  0  0  0  0  0  0  0
   -0.6018    0.1571    0.3712 C   0  0  0  0  0  0  0  0  0  0  0  0
    1.7296    0.6821    1.1503 C   0  0  0  0  0  0  0  0  0  0  0  0
   -1.6158    0.9044   -0.1528 C   0  0  0  0  0  0  0  0  0  0  0  0
   -0.0043    2.2397    0.2026 C   0  0  0  0  0  0  0  0  0  0  0  0
   -2.8759    0.2839   -0.5102 C   0  0  0  0  0  0  0  0  0  0  0  0
   -1.9089   -1.7472    0.2401 C   0  0  0  0  0  0  0  0  0  0  0  0
    3.8997    0.0529    0.5095 C   0  0  0  0  0  0  0  0  0  0  0  0
    4.7623   -0.2903   -0.6896 C   0  0  0  0  0  0  0  0  0  0  0  0
    2.1002    1.5632    1.6855 H   0  0  0  0  0  0  0  0  0  0  0  0
    1.6282   -0.1595    1.8433 H   0  0  0  0  0  0  0  0  0  0  0  0
    0.6218    3.1189    0.2712 H   0  0  0  0  0  0  0  0  0  0  0  0
    0.0582   -1.7177    0.9727 H   0  0  0  0  0  0  0  0  0  0  0  0
    4.3205    0.9164    1.0361 H   0  0  0  0  0  0  0  0  0  0  0  0
    3.8558   -0.8035    1.1923 H   0  0  0  0  0  0  0  0  0  0  0  0
    5.7866   -0.5200   -0.3834 H   0  0  0  0  0  0  0  0  0  0  0  0
    4.7811    0.5309   -1.4130 H   0  0  0  0  0  0  0  0  0  0  0  0
   -1.1514   -3.5877    0.8742 H   0  0  0  0  0  0  0  0  0  0  0  0
   -2.7753   -3.6443    0.2717 H   0  0  0  0  0  0  0  0  0  0  0  0
    3.3044   -1.2166   -1.5928 H   0  0  0  0  0  0  0  0  0  0  0  0
  1 10  1  0  0  0  0
  1 15  1  0  0  0  0
  2 13  2  0  0  0  0
  3 16  1  0  0  0  0
  3 27  1  0  0  0  0
  4  9  1  0  0  0  0
  4 10  1  0  0  0  0
  4 12  1  0  0  0  0
  5  9  1  0  0  0  0
  5 14  1  0  0  0  0
  5 20  1  0  0  0  0
  6 11  1  0  0  0  0
  6 12  2  0  0  0  0
  7 13  1  0  0  0  0
  7 14  2  0  0  0  0
  8 14  1  0  0  0  0
  8 25  1  0  0  0  0
  8 26  1  0  0  0  0
  9 11  2  0  0  0  0
 10 17  1  0  0  0  0
 10 18  1  0  0  0  0
 11 13  1  0  0  0  0
 12 19  1  0  0  0  0
 15 16  1  0  0  0  0
 15 21  1  0  0  0  0
 15 22  1  0  0  0  0
 16 23  1  0  0  0  0
 16 24  1  0  0  0  0
M  END
> <DATABASE_ID>
DB00787

> <DATABASE_NAME>
drugbank

> <ORIGINAL_SOURCE>
PUBCHEM

> <ORIGINAL_SOURCE_URL>
https://pubchem.ncbi.nlm.nih.gov/rest/pug/compound/inchikey/MKUXAQIIEYXACX-UHFFFAOYSA-N/SDF?record_type=3d

> <SMILES>
NC1=NC(=O)C2=C(N1)N(COCCO)C=N2

> <INCHI_IDENTIFIER>
InChI=1S/C8H11N5O3/c9-8-11-6-5(7(15)12-8)10-3-13(6)4-16-2-1-14/h3,14H,1-2,4H2,(H3,9,11,12,15)

> <INCHI_KEY>
MKUXAQIIEYXACX-UHFFFAOYSA-N

> <FORMULA>
C8H11N5O3

> <MOLECULAR_WEIGHT>
225.2046

> <EXACT_MASS>
225.086189243

> <JCHEM_ACCEPTOR_COUNT>
7

> <JCHEM_ATOM_COUNT>
27

> <JCHEM_AVERAGE_POLARIZABILITY>
21.507933725133036

> <JCHEM_BIOAVAILABILITY>
1

> <JCHEM_DONOR_COUNT>
3

> <JCHEM_FORMAL_CHARGE>
0

> <JCHEM_GHOSE_FILTER>
0

> <JCHEM_IUPAC>
2-amino-9-[(2-hydroxyethoxy)methyl]-6,9-dihydro-3H-purin-6-one

> <ALOGPS_LOGP>
-0.95

> <JCHEM_LOGP>
-1.0319567660000002

> <ALOGPS_LOGS>
-1.39

> <JCHEM_MDDR_LIKE_RULE>
0

> <JCHEM_NUMBER_OF_RINGS>
2

> <JCHEM_PHYSIOLOGICAL_CHARGE>
0

> <JCHEM_PKA>
15.117578228426233

> <JCHEM_PKA_STRONGEST_ACIDIC>
11.984859791921778

> <JCHEM_PKA_STRONGEST_BASIC>
3.0163894181545694

> <JCHEM_POLAR_SURFACE_AREA>
114.75999999999999

> <JCHEM_REFRACTIVITY>
54.6334

> <JCHEM_ROTATABLE_BOND_COUNT>
4

> <JCHEM_RULE_OF_FIVE>
1

> <ALOGPS_SOLUBILITY>
9.08e+00 g/l

> <JCHEM_TRADITIONAL_IUPAC>
aciclovir

> <JCHEM_VEBER_RULE>
0

$$$$
798
  Mrv0541 02231215002D          

 33 35  0  0  1  0            999 V2000
    4.9509   -1.9904    0.0000 O   0  0  0  0  0  0  0  0  0  0  0  0
    6.3799    0.4847    0.0000 O   0  0  0  0  0  0  0  0  0  0  0  0
    4.9509   -0.3403    0.0000 O   0  0  0  0  0  0  0  0  0  0  0  0
    4.2365   -0.7528    0.0000 O   0  0  0  0  0  0  0  0  0  0  0  0
    7.6175    1.1992    0.0000 O   0  0  0  0  0  0  0  0  0  0  0  0
    3.5220   -2.8154    0.0000 O   0  0  0  0  0  0  0  0  0  0  0  0
    2.3950   -0.0384    0.0000 O   0  0  0  0  0  0  0  0  0  0  0  0
    6.3799   -2.8154    0.0000 N   0  0  0  0  0  0  0  0  0  0  0  0
    7.9194   -0.7528    0.0000 N   0  0  0  0  0  0  0  0  0  0  0  0
    2.0930   -1.9904    0.0000 N   0  0  0  0  0  0  0  0  0  0  0  0
    5.5549    1.9136    0.0000 N   0  0  0  0  0  0  0  0  0  0  0  0
    9.2675    2.6282    0.0000 N   0  0  0  0  0  0  0  0  0  0  0  0
    5.6655   -1.5778    0.0000 C   0  0  0  0  0  0  0  0  0  0  0  0
    6.3799   -0.3403    0.0000 C   0  0  0  0  0  0  0  0  0  0  0  0
    5.6655   -0.7528    0.0000 C   0  0  0  0  0  0  0  0  0  0  0  0
    6.3799   -1.9904    0.0000 C   0  0  0  0  0  0  0  0  0  0  0  0
    7.0944   -0.7528    0.0000 C   0  0  0  0  0  0  0  0  0  0  0  0
    7.0944   -1.5778    0.0000 C   0  0  0  0  0  0  0  0  0  0  0  0
    4.2365   -1.5778    0.0000 C   0  0  0  0  0  0  0  0  0  0  0  0
    2.8075   -1.5778    0.0000 C   0  0  0  0  0  0  0  0  0  0  0  0
    3.5220   -1.9904    0.0000 C   0  0  0  0  0  0  0  0  0  0  0  0
    6.7925    1.1992    0.0000 C   0  0  0  0  0  0  0  0  0  0  0  0
    2.8075   -0.7528    0.0000 C   0  0  0  0  0  0  0  0  0  0  0  0
    6.3799    1.9136    0.0000 C   0  0  0  0  0  0  0  0  0  0  0  0
    8.0300    1.9136    0.0000 C   0  0  0  0  0  0  0  0  0  0  0  0
    6.7925    2.6282    0.0000 C   0  0  0  0  0  0  0  0  0  0  0  0
    3.5220   -0.3403    0.0000 C   0  0  0  0  0  0  0  0  0  0  0  0
    7.6175    2.6282    0.0000 C   0  0  0  0  0  0  0  0  0  0  0  0
    8.8550    1.9136    0.0000 C   0  0  0  0  0  0  0  0  0  0  0  0
    1.9825   -0.7528    0.0000 C   0  0  0  0  0  0  0  0  0  0  0  0
    9.2675    1.1992    0.0000 C   0  0  0  0  0  0  0  0  0  0  0  0
    2.0930   -2.8154    0.0000 C   0  0  0  0  0  0  0  0  0  0  0  0
   10.0925    2.6282    0.0000 C   0  0  0  0  0  0  0  0  0  0  0  0
  1 13  1  0  0  0  0
  1 19  1  0  0  0  0
  2 14  1  0  0  0  0
  2 22  1  0  0  0  0
  3 15  1  0  0  0  0
  4 19  1  0  0  0  0
  4 27  1  0  0  0  0
  5 22  1  0  0  0  0
  5 25  1  0  0  0  0
  6 21  1  0  0  0  0
  7 23  1  0  0  0  0
  8 16  1  0  0  0  0
  9 17  1  0  0  0  0
 10 20  1  0  0  0  0
 10 32  1  0  0  0  0
 11 24  1  0  0  0  0
 12 29  1  0  0  0  0
 12 33  1  0  0  0  0
 13 15  1  0  0  0  0
 13 16  1  0  0  0  0
 14 15  1  0  0  0  0
 14 17  1  0  0  0  0
 16 18  1  0  0  0  0
 17 18  1  0  0  0  0
 19 21  1  0  0  0  0
 20 21  1  0  0  0  0
 20 23  1  0  0  0  0
 22 24  1  0  0  0  0
 23 27  1  0  0  0  0
 23 30  1  0  0  0  0
 24 26  1  0  0  0  0
 25 28  1  0  0  0  0
 25 29  1  0  0  0  0
 26 28  1  0  0  0  0
 29 31  1  0  0  0  0
M  END
> <DATABASE_ID>
DB00798

> <DATABASE_NAME>
drugbank

> <SMILES>
CNC(C)C1CCC(N)C(OC2C(N)CC(N)C(OC3OCC(C)(O)C(NC)C3O)C2O)O1

> <INCHI_IDENTIFIER>
InChI=1S/C21H43N5O7/c1-9(25-3)13-6-5-10(22)19(31-13)32-16-11(23)7-12(24)17(14(16)27)33-20-15(28)18(26-4)21(2,29)8-30-20/h9-20,25-29H,5-8,22-24H2,1-4H3

> <INCHI_KEY>
CEAZRRDELHUEMR-UHFFFAOYSA-N

> <FORMULA>
C21H43N5O7

> <MOLECULAR_WEIGHT>
477.5954

> <EXACT_MASS>
477.316248755

> <JCHEM_ACCEPTOR_COUNT>
12

> <JCHEM_AVERAGE_POLARIZABILITY>
51.923795808054095

> <JCHEM_BIOAVAILABILITY>
0

> <JCHEM_DONOR_COUNT>
8

> <JCHEM_FORMAL_CHARGE>
0

> <JCHEM_GHOSE_FILTER>
0

> <JCHEM_IUPAC>
2-{[4,6-diamino-3-({3-amino-6-[1-(methylamino)ethyl]oxan-2-yl}oxy)-2-hydroxycyclohexyl]oxy}-5-methyl-4-(methylamino)oxane-3,5-diol

> <ALOGPS_LOGP>
-1.64

> <JCHEM_LOGP>
-3.1371555293333344

> <ALOGPS_LOGS>
-1.58

> <JCHEM_MDDR_LIKE_RULE>
1

> <JCHEM_NUMBER_OF_RINGS>
3

> <JCHEM_PHYSIOLOGICAL_CHARGE>
5

> <JCHEM_PKA>
13.159419991605812

> <JCHEM_PKA_STRONGEST_ACIDIC>
12.5491782180648

> <JCHEM_PKA_STRONGEST_BASIC>
10.183710185453362

> <JCHEM_POLAR_SURFACE_AREA>
199.73000000000002

> <JCHEM_REFRACTIVITY>
118.02069999999998

> <JCHEM_ROTATABLE_BOND_COUNT>
7

> <JCHEM_RULE_OF_FIVE>
0

> <ALOGPS_SOLUBILITY>
1.26e+01 g/l

> <JCHEM_TRADITIONAL_IUPAC>
gentamicin

> <JCHEM_VEBER_RULE>
0

> <DRUGBANK_ID>
DB00798

> <SECONDARY_ACCESSION_NUMBERS>
APRD00214

> <DRUG_GROUPS>
approved; vet_approved

> <GENERIC_NAME>
Gentamicin

> <SYNONYMS>
Gentamicin; Gentamicina

> <PRODUCTS>
Alcomicin Oph Sol 3mg/ml; Amolg A; Betamycin Ophthalmic/otic Solution; Celestone-G; Cidomycin Inj 10mg/ml; Cidomycin Inj 40mg/ml; Cidomycin Inj Pediatric 10mg; Diprogen Cream; Diprogen Ointment; Dom-gentamicin-betamethasone; Garamycin; Garamycin Cream 0.1%; Garamycin Gentamicin Sulfate; Garamycin Inj 10mg/ml Pediatric; Garamycin Inj 40mg/ml; Garamycin Ont 0.1%; Garamycin Ophthalmic Drops 0.3%; Garamycin Ophthalmic Ointment 0.3%; Garamycin Otic Drops 0.3%; Garasone Ophthalmic Ointment; Garasone Ophthalmic and Otic Solution; Garatec Ophthalmic Dps 5mg/ml; Garatec Otic Dps 5mg/ml; Gentacidin Oph Soln 3mg/ml; Gentacidin Ophthalmic Solution 3mg/ml; Gentak; Gentamicin; Gentamicin Injection USP; Gentamicin Sulfate; Gentamicin Sulfate Cream 0.1%; Gentamicin Sulfate In 0.9% Sodium Chloride Injection; Gentamicin Sulfate In Nacl 0.9% Inj; Gentamicin Sulfate In Nacl O.9% Inj; Gentamicin Sulfate In Sodium Chloride; Gentamicin Sulfate in Sodium Chloride; Gentamicin Sulphate 0.3% - Liq Oph; Gentamicin Sulphate Injection USP-10mg/ml; Gentamicin Sulphate Injection USP-40mg/ml; Gentamicin sulfate; Gentamicin(e); Gentamicin(e) 120mg Liq IV 1.2mg/ml; Gentrasul Liq 3mg/ml; Gentrasul Oph Ointment 3mg/gm; Minims Gentamicin Sulfate 0.3%; Ocugram Liq 3mg/ml; Ocugram Ont 3mg/gm; Odan-gentamicin; PMS-gentamicin Cream 1mg/gm; PMS-gentamicin Ointment 1mg/gm; PMS-gentamicin Ophthalmic Ointment 0.3%; PMS-gentamicin Otic Drops 0.3%; PMS-gentamicin Sulfate Oph Dps 0.3%; PMS-gentamicin-betamethasone; Pred-G; R.O.-gentycin; Ratio-gentamicin; Sandoz Gentamicin; Sandoz Pentasone; Septopal; Valisone-G Cream; Valisone-G Ointment

> <INTERNATIONAL_BRANDS>
Alcomicin; Bristagen; G-Mycin; Genoptic; Gentacidin; Gentafair; Gentamar; Jenamicin; Ocu-Mycin; Spectro-Genta; U-gencin

> <SALTS>
Gentamicin sulfate

$$$$
287180
  -OEChem-10051719233D

 36 38  0     0  0  0  0  0  0999 V2000
   -2.8632   -2.3202    0.3787 O   0  0  0  0  0  0  0  0  0  0  0  0
   -5.1631   -1.3770   -0.4597 O   0  0  0  0  0  0  0  0  0  0  0  0
   -5.5417    0.7520    0.2845 O   0  0  0  0  0  0  0  0  0  0  0  0
   -1.4207    1.4259   -0.3425 N   0  0  0  0  0  0  0  0  0  0  0  0
    5.9708    0.1747   -0.0725 N   0  0  0  0  0  0  0  0  0  0  0  0
   -0.4920    0.3791   -0.1351 C   0  0  0  0  0  0  0  0  0  0  0  0
   -0.9616   -0.9307    0.1175 C   0  0  0  0  0  0  0  0  0  0  0  0
   -0.9186    2.7732   -0.6013 C   0  0  0  0  0  0  0  0  0  0  0  0
    0.9016    0.5667   -0.1653 C   0  0  0  0  0  0  0  0  0  0  0  0
    1.7843   -0.4977    0.0453 C   0  0  0  0  0  0  0  0  0  0  0  0
   -2.7754    1.1507   -0.2939 C   0  0  0  0  0  0  0  0  0  0  0  0
   -2.4238   -1.1975    0.1628 C   0  0  0  0  0  0  0  0  0  0  0  0
   -3.3295   -0.0450   -0.0642 C   0  0  0  0  0  0  0  0  0  0  0  0
   -0.0771   -1.9972    0.3285 C   0  0  0  0  0  0  0  0  0  0  0  0
    1.2960   -1.7762    0.2916 C   0  0  0  0  0  0  0  0  0  0  0  0
    3.2129   -0.2682    0.0051 C   0  0  0  0  0  0  0  0  0  0  0  0
   -0.7460    3.5258    0.7041 C   0  0  0  0  0  0  0  0  0  0  0  0
   -4.7892   -0.1464   -0.0497 C   0  0  0  0  0  0  0  0  0  0  0  0
    4.0702   -1.2811   -0.4086 C   0  0  0  0  0  0  0  0  0  0  0  0
    3.7315    0.9656    0.3802 C   0  0  0  0  0  0  0  0  0  0  0  0
    5.4291   -1.0113   -0.4294 C   0  0  0  0  0  0  0  0  0  0  0  0
    5.1055    1.1349    0.3242 C   0  0  0  0  0  0  0  0  0  0  0  0
   -0.0125    2.7979   -1.2142 H   0  0  0  0  0  0  0  0  0  0  0  0
   -1.6546    3.3208   -1.2063 H   0  0  0  0  0  0  0  0  0  0  0  0
    1.3065    1.5499   -0.3751 H   0  0  0  0  0  0  0  0  0  0  0  0
   -3.3866    2.0313   -0.4675 H   0  0  0  0  0  0  0  0  0  0  0  0
   -0.4407   -3.0014    0.5287 H   0  0  0  0  0  0  0  0  0  0  0  0
    1.9452   -2.6245    0.4899 H   0  0  0  0  0  0  0  0  0  0  0  0
   -1.6876    3.5785    1.2610 H   0  0  0  0  0  0  0  0  0  0  0  0
   -0.0032    3.0469    1.3501 H   0  0  0  0  0  0  0  0  0  0  0  0
   -0.4125    4.5499    0.5089 H   0  0  0  0  0  0  0  0  0  0  0  0
    3.7308   -2.2557   -0.7419 H   0  0  0  0  0  0  0  0  0  0  0  0
    3.1255    1.7878    0.7446 H   0  0  0  0  0  0  0  0  0  0  0  0
    6.1404   -1.7650   -0.7511 H   0  0  0  0  0  0  0  0  0  0  0  0
    5.5620    2.0757    0.6140 H   0  0  0  0  0  0  0  0  0  0  0  0
   -6.1383   -1.4840   -0.4632 H   0  0  0  0  0  0  0  0  0  0  0  0
  1 12  2  0  0  0  0
  2 18  1  0  0  0  0
  2 36  1  0  0  0  0
  3 18  2  0  0  0  0
  4  6  1  0  0  0  0
  4  8  1  0  0  0  0
  4 11  1  0  0  0  0
  5 21  2  0  0  0  0
  5 22  1  0  0  0  0
  6  7  2  0  0  0  0
  6  9  1  0  0  0  0
  7 12  1  0  0  0  0
  7 14  1  0  0  0  0
  8 17  1  0  0  0  0
  8 23  1  0  0  0  0
  8 24  1  0  0  0  0
  9 10  2  0  0  0  0
  9 25  1  0  0  0  0
 10 15  1  0  0  0  0
 10 16  1  0  0  0  0
 11 13  2  0  0  0  0
 11 26  1  0  0  0  0
 12 13  1  0  0  0  0
 13 18  1  0  0  0  0
 14 15  2  0  0  0  0
 14 27  1  0  0  0  0
 15 28  1  0  0  0  0
 16 19  2  0  0  0  0
 16 20  1  0  0  0  0
 17 29  1  0  0  0  0
 17 30  1  0  0  0  0
 17 31  1  0  0  0  0
 19 21  1  0  0  0  0
 19 32  1  0  0  0  0
 20 22  2  0  0  0  0
 20 33  1  0  0  0  0
 21 34  1  0  0  0  0
 22 35  1  0  0  0  0
M  END
> <DATABASE_ID>
DB00817

> <DATABASE_NAME>
drugbank

> <ORIGINAL_SOURCE>
PUBCHEM

> <ORIGINAL_SOURCE_URL>
https://pubchem.ncbi.nlm.nih.gov/rest/pug/compound/inchikey/XBPZXDSZHPDXQU-UHFFFAOYSA-N/SDF?record_type=3d

> <SMILES>
CCN1C=C(C(O)=O)C(=O)C2=C1C=C(C=C2)C1=CC=NC=C1

> <INCHI_IDENTIFIER>
InChI=1S/C17H14N2O3/c1-2-19-10-14(17(21)22)16(20)13-4-3-12(9-15(13)19)11-5-7-18-8-6-11/h3-10H,2H2,1H3,(H,21,22)

> <INCHI_KEY>
XBPZXDSZHPDXQU-UHFFFAOYSA-N

> <FORMULA>
C17H14N2O3

> <MOLECULAR_WEIGHT>
294.3047

> <EXACT_MASS>
294.100442324

> <JCHEM_ACCEPTOR_COUNT>
5

> <JCHEM_AVERAGE_POLARIZABILITY>
30.80407384119609

> <JCHEM_BIOAVAILABILITY>
1

> <JCHEM_DONOR_COUNT>
1

> <JCHEM_FORMAL_CHARGE>
0

> <JCHEM_GHOSE_FILTER>
1

> <JCHEM_IUPAC>
1-ethyl-4-oxo-7-(pyridin-4-yl)-1,4-dihydroquinoline-3-carboxylic acid

> <ALOGPS_LOGP>
1.85

> <JCHEM_LOGP>
1.8992950124918617

> <ALOGPS_LOGS>
-3.46

> <JCHEM_MDDR_LIKE_RULE>
0

> <JCHEM_NUMBER_OF_RINGS>
3

> <JCHEM_PHYSIOLOGICAL_CHARGE>
-1

> <JCHEM_PKA_STRONGEST_ACIDIC>
6.182001419393908

> <JCHEM_PKA_STRONGEST_BASIC>
4.903894248060616

> <JCHEM_POLAR_SURFACE_AREA>
70.5

> <JCHEM_REFRACTIVITY>
83.05569999999999

> <JCHEM_ROTATABLE_BOND_COUNT>
3

> <JCHEM_RULE_OF_FIVE>
1

> <ALOGPS_SOLUBILITY>
1.02e-01 g/l

> <JCHEM_TRADITIONAL_IUPAC>
rosoxacin

> <JCHEM_VEBER_RULE>
0

$$$$
5284447
  -OEChem-10051719243D

 94 97  0     1  0  0  0  0  0999 V2000
    1.0717   -2.4370   -0.7728 O   0  0  0  0  0  0  0  0  0  0  0  0
   -5.0762   -1.3934   -3.0086 O   0  0  0  0  0  0  0  0  0  0  0  0
    0.0813   -4.5780   -0.6133 O   0  0  0  0  0  0  0  0  0  0  0  0
    0.9329   -2.8276    3.3392 O   0  0  0  0  0  0  0  0  0  0  0  0
    4.5395    0.0750   -1.4944 O   0  0  0  0  0  0  0  0  0  0  0  0
   -3.1709   -3.2724    0.3256 O   0  0  0  0  0  0  0  0  0  0  0  0
    4.8595    1.7851    0.0799 O   0  0  0  0  0  0  0  0  0  0  0  0
    4.1704   -1.9682    2.6359 O   0  0  0  0  0  0  0  0  0  0  0  0
    3.9719   -4.1321    1.9473 O   0  0  0  0  0  0  0  0  0  0  0  0
    6.1130    2.1905   -2.4733 O   0  0  0  0  0  0  0  0  0  0  0  0
    7.8567    3.5299    1.2857 O   0  0  0  0  0  0  0  0  0  0  0  0
   -7.2033    1.8154    0.3056 O   0  0  0  0  0  0  0  0  0  0  0  0
   -7.7652    0.5394    2.1420 O   0  0  0  0  0  0  0  0  0  0  0  0
    8.7052    2.6521   -1.3801 N   0  0  0  0  0  0  0  0  0  0  0  0
   -0.0505   -3.1933   -0.2898 C   0  0  1  0  0  0  0  0  0  0  0  0
    2.3256   -2.7647   -0.1671 C   0  0  2  0  0  0  0  0  0  0  0  0
    2.2811   -2.5098    1.3462 C   0  0  1  0  0  0  0  0  0  0  0  0
   -0.1989   -2.9804    1.2213 C   0  0  0  0  0  0  0  0  0  0  0  0
    1.1001   -3.2482    1.9854 C   0  0  2  0  0  0  0  0  0  0  0  0
   -1.2676   -2.6501   -1.0819 C   0  0  0  0  0  0  0  0  0  0  0  0
   -2.5786   -3.4461   -0.9555 C   0  0  2  0  0  0  0  0  0  0  0  0
   -4.1942   -1.7250   -1.9257 C   0  0  2  0  0  0  0  0  0  0  0  0
   -3.5910   -3.0949   -2.0560 C   0  0  0  0  0  0  0  0  0  0  0  0
    3.4348   -1.9852   -0.9068 C   0  0  0  0  0  0  0  0  0  0  0  0
   -5.6859   -1.5551   -1.7183 C   0  0  1  0  0  0  0  0  0  0  0  0
    3.4560   -0.4557   -0.7280 C   0  0  2  0  0  0  0  0  0  0  0  0
    3.5499   -2.9861    1.9907 C   0  0  0  0  0  0  0  0  0  0  0  0
    5.4870    0.7358   -0.6599 C   0  0  2  0  0  0  0  0  0  0  0  0
    6.6433    1.2876   -1.4984 C   0  0  2  0  0  0  0  0  0  0  0  0
    7.6506    2.0091   -0.5924 C   0  0  2  0  0  0  0  0  0  0  0  0
    6.9461    3.0422    0.3029 C   0  0  1  0  0  0  0  0  0  0  0  0
   -6.1769   -0.4095   -0.9400 C   0  0  0  0  0  0  0  0  0  0  0  0
    5.7462    2.4012    1.0189 C   0  0  1  0  0  0  0  0  0  0  0  0
    2.2017    0.2112   -1.2117 C   0  0  0  0  0  0  0  0  0  0  0  0
    4.9394    3.4356    1.7979 C   0  0  0  0  0  0  0  0  0  0  0  0
   -6.7989   -0.4951    0.2460 C   0  0  0  0  0  0  0  0  0  0  0  0
    1.3653    0.8797   -0.4041 C   0  0  0  0  0  0  0  0  0  0  0  0
   -7.3106    0.6634    1.0129 C   0  0  0  0  0  0  0  0  0  0  0  0
    0.1088    1.4315   -0.8538 C   0  0  0  0  0  0  0  0  0  0  0  0
   -0.7577    2.0301   -0.0237 C   0  0  0  0  0  0  0  0  0  0  0  0
   -7.5684    3.0533    0.9600 C   0  0  1  0  0  0  0  0  0  0  0  0
   -6.6315    4.1469    0.4299 C   0  0  0  0  0  0  0  0  0  0  0  0
   -2.0542    2.5039   -0.4517 C   0  0  0  0  0  0  0  0  0  0  0  0
   -9.0214    3.3631    0.6229 C   0  0  0  0  0  0  0  0  0  0  0  0
   -5.2120    3.8609    0.8376 C   0  0  0  0  0  0  0  0  0  0  0  0
   -2.9476    3.0397    0.3929 C   0  0  0  0  0  0  0  0  0  0  0  0
   -4.2767    3.4256   -0.0194 C   0  0  0  0  0  0  0  0  0  0  0  0
    2.5183   -3.8294   -0.3578 H   0  0  0  0  0  0  0  0  0  0  0  0
    2.1468   -1.4415    1.5528 H   0  0  0  0  0  0  0  0  0  0  0  0
   -0.9810   -3.6279    1.6340 H   0  0  0  0  0  0  0  0  0  0  0  0
   -0.5063   -1.9456    1.4239 H   0  0  0  0  0  0  0  0  0  0  0  0
    1.2925   -4.3284    2.0033 H   0  0  0  0  0  0  0  0  0  0  0  0
   -0.9853   -2.6266   -2.1440 H   0  0  0  0  0  0  0  0  0  0  0  0
   -1.4300   -1.6042   -0.7918 H   0  0  0  0  0  0  0  0  0  0  0  0
   -2.3556   -4.5139   -1.0591 H   0  0  0  0  0  0  0  0  0  0  0  0
   -3.5035   -0.9521   -1.6214 H   0  0  0  0  0  0  0  0  0  0  0  0
   -4.3965   -3.8400   -2.0308 H   0  0  0  0  0  0  0  0  0  0  0  0
   -3.1116   -3.1870   -3.0381 H   0  0  0  0  0  0  0  0  0  0  0  0
    3.3557   -2.2037   -1.9815 H   0  0  0  0  0  0  0  0  0  0  0  0
    4.4150   -2.3781   -0.6063 H   0  0  0  0  0  0  0  0  0  0  0  0
   -6.2825   -2.4538   -1.5944 H   0  0  0  0  0  0  0  0  0  0  0  0
    3.5985   -0.2514    0.3400 H   0  0  0  0  0  0  0  0  0  0  0  0
   -0.1037   -4.6895   -1.5609 H   0  0  0  0  0  0  0  0  0  0  0  0
    5.8849   -0.0074    0.0456 H   0  0  0  0  0  0  0  0  0  0  0  0
    7.1215    0.4695   -2.0504 H   0  0  0  0  0  0  0  0  0  0  0  0
    8.1403    1.2652    0.0494 H   0  0  0  0  0  0  0  0  0  0  0  0
    0.1803   -3.3206    3.7082 H   0  0  0  0  0  0  0  0  0  0  0  0
    6.6090    3.8885   -0.3103 H   0  0  0  0  0  0  0  0  0  0  0  0
   -6.0203    0.5635   -1.3984 H   0  0  0  0  0  0  0  0  0  0  0  0
    6.0896    1.6423    1.7346 H   0  0  0  0  0  0  0  0  0  0  0  0
   -3.9856   -3.8027    0.3485 H   0  0  0  0  0  0  0  0  0  0  0  0
    1.9598    0.0953   -2.2663 H   0  0  0  0  0  0  0  0  0  0  0  0
    4.0512    2.9688    2.2383 H   0  0  0  0  0  0  0  0  0  0  0  0
    4.5780    4.2299    1.1354 H   0  0  0  0  0  0  0  0  0  0  0  0
    5.5223    3.8877    2.6051 H   0  0  0  0  0  0  0  0  0  0  0  0
    5.0037   -2.2593    3.0636 H   0  0  0  0  0  0  0  0  0  0  0  0
    8.3069    3.4004   -1.9461 H   0  0  0  0  0  0  0  0  0  0  0  0
    9.3662    3.1062   -0.7503 H   0  0  0  0  0  0  0  0  0  0  0  0
   -6.9493   -1.4660    0.7097 H   0  0  0  0  0  0  0  0  0  0  0  0
    6.8446    2.4476   -3.0595 H   0  0  0  0  0  0  0  0  0  0  0  0
    1.6057    0.9811    0.6512 H   0  0  0  0  0  0  0  0  0  0  0  0
    7.4675    4.3274    1.6818 H   0  0  0  0  0  0  0  0  0  0  0  0
   -0.1405    1.3069   -1.9052 H   0  0  0  0  0  0  0  0  0  0  0  0
   -0.5133    2.1404    1.0306 H   0  0  0  0  0  0  0  0  0  0  0  0
   -7.4521    2.9634    2.0477 H   0  0  0  0  0  0  0  0  0  0  0  0
   -6.9211    5.1262    0.8281 H   0  0  0  0  0  0  0  0  0  0  0  0
   -6.7049    4.2042   -0.6636 H   0  0  0  0  0  0  0  0  0  0  0  0
   -2.3083    2.3715   -1.5011 H   0  0  0  0  0  0  0  0  0  0  0  0
   -9.1693    3.4206   -0.4611 H   0  0  0  0  0  0  0  0  0  0  0  0
   -9.6786    2.5666    0.9875 H   0  0  0  0  0  0  0  0  0  0  0  0
   -9.3399    4.3086    1.0722 H   0  0  0  0  0  0  0  0  0  0  0  0
   -4.9767    3.9721    1.8937 H   0  0  0  0  0  0  0  0  0  0  0  0
   -2.7008    3.1567    1.4457 H   0  0  0  0  0  0  0  0  0  0  0  0
   -4.5310    3.2970   -1.0687 H   0  0  0  0  0  0  0  0  0  0  0  0
  1 15  1  0  0  0  0
  1 16  1  0  0  0  0
  2 22  1  0  0  0  0
  2 25  1  0  0  0  0
  3 15  1  0  0  0  0
  3 63  1  0  0  0  0
  4 19  1  0  0  0  0
  4 67  1  0  0  0  0
  5 26  1  0  0  0  0
  5 28  1  0  0  0  0
  6 21  1  0  0  0  0
  6 71  1  0  0  0  0
  7 28  1  0  0  0  0
  7 33  1  0  0  0  0
  8 27  1  0  0  0  0
  8 76  1  0  0  0  0
  9 27  2  0  0  0  0
 10 29  1  0  0  0  0
 10 80  1  0  0  0  0
 11 31  1  0  0  0  0
 11 82  1  0  0  0  0
 12 38  1  0  0  0  0
 12 41  1  0  0  0  0
 13 38  2  0  0  0  0
 14 30  1  0  0  0  0
 14 77  1  0  0  0  0
 14 78  1  0  0  0  0
 15 18  1  0  0  0  0
 15 20  1  0  0  0  0
 16 17  1  0  0  0  0
 16 24  1  0  0  0  0
 16 48  1  0  0  0  0
 17 19  1  0  0  0  0
 17 27  1  0  0  0  0
 17 49  1  0  0  0  0
 18 19  1  0  0  0  0
 18 50  1  0  0  0  0
 18 51  1  0  0  0  0
 19 52  1  0  0  0  0
 20 21  1  0  0  0  0
 20 53  1  0  0  0  0
 20 54  1  0  0  0  0
 21 23  1  0  0  0  0
 21 55  1  0  0  0  0
 22 23  1  0  0  0  0
 22 25  1  0  0  0  0
 22 56  1  0  0  0  0
 23 57  1  0  0  0  0
 23 58  1  0  0  0  0
 24 26  1  0  0  0  0
 24 59  1  0  0  0  0
 24 60  1  0  0  0  0
 25 32  1  0  0  0  0
 25 61  1  0  0  0  0
 26 34  1  0  0  0  0
 26 62  1  0  0  0  0
 28 29  1  0  0  0  0
 28 64  1  0  0  0  0
 29 30  1  0  0  0  0
 29 65  1  0  0  0  0
 30 31  1  0  0  0  0
 30 66  1  0  0  0  0
 31 33  1  0  0  0  0
 31 68  1  0  0  0  0
 32 36  2  0  0  0  0
 32 69  1  0  0  0  0
 33 35  1  0  0  0  0
 33 70  1  0  0  0  0
 34 37  2  0  0  0  0
 34 72  1  0  0  0  0
 35 73  1  0  0  0  0
 35 74  1  0  0  0  0
 35 75  1  0  0  0  0
 36 38  1  0  0  0  0
 36 79  1  0  0  0  0
 37 39  1  0  0  0  0
 37 81  1  0  0  0  0
 39 40  2  0  0  0  0
 39 83  1  0  0  0  0
 40 43  1  0  0  0  0
 40 84  1  0  0  0  0
 41 42  1  0  0  0  0
 41 44  1  0  0  0  0
 41 85  1  0  0  0  0
 42 45  1  0  0  0  0
 42 86  1  0  0  0  0
 42 87  1  0  0  0  0
 43 46  2  0  0  0  0
 43 88  1  0  0  0  0
 44 89  1  0  0  0  0
 44 90  1  0  0  0  0
 44 91  1  0  0  0  0
 45 47  2  0  0  0  0
 45 92  1  0  0  0  0
 46 47  1  0  0  0  0
 46 93  1  0  0  0  0
 47 94  1  0  0  0  0
M  END
> <DATABASE_ID>
DB00826

> <DATABASE_NAME>
drugbank

> <ORIGINAL_SOURCE>
PUBCHEM

> <ORIGINAL_SOURCE_URL>
https://pubchem.ncbi.nlm.nih.gov/rest/pug/compound/inchikey/NCXMLFZGDNKEPB-FFPOYIOWSA-N/SDF?record_type=3d

> <SMILES>
[H][C@@]12C[C@H](O)C[C@]3(O)C[C@H](O)[C@@H](C(O)=O)[C@]([H])(C[C@@H](O[C@]4([H])O[C@H](C)[C@@H](O)[C@H](N)[C@@H]4O)\C=C\C=C\C=C\C=C\C[C@@H](C)OC(=O)\C=C\[C@@]1([H])O2)O3

> <INCHI_IDENTIFIER>
InChI=1S/C33H47NO13/c1-18-10-8-6-4-3-5-7-9-11-21(45-32-30(39)28(34)29(38)19(2)44-32)15-25-27(31(40)41)22(36)17-33(42,47-25)16-20(35)14-24-23(46-24)12-13-26(37)43-18/h3-9,11-13,18-25,27-30,32,35-36,38-39,42H,10,14-17,34H2,1-2H3,(H,40,41)/b4-3+,7-5+,8-6+,11-9+,13-12+/t18-,19-,20+,21+,22+,23-,24-,25+,27-,28+,29-,30+,32+,33-/m1/s1

> <INCHI_KEY>
NCXMLFZGDNKEPB-FFPOYIOWSA-N

> <FORMULA>
C33H47NO13

> <MOLECULAR_WEIGHT>
665.733

> <EXACT_MASS>
665.304740577

> <JCHEM_ACCEPTOR_COUNT>
13

> <JCHEM_ATOM_COUNT>
94

> <JCHEM_AVERAGE_POLARIZABILITY>
68.57872875871091

> <JCHEM_BIOAVAILABILITY>
0

> <JCHEM_DONOR_COUNT>
7

> <JCHEM_FORMAL_CHARGE>
0

> <JCHEM_GHOSE_FILTER>
0

> <JCHEM_IUPAC>
(1R,3S,5R,7R,8E,12R,14E,16E,18E,20E,22R,24S,25R,26S)-22-{[(2R,3S,4S,5S,6R)-4-amino-3,5-dihydroxy-6-methyloxan-2-yl]oxy}-1,3,26-trihydroxy-12-methyl-10-oxo-6,11,28-trioxatricyclo[22.3.1.0⁵,⁷]octacosa-8,14,16,18,20-pentaene-25-carboxylic acid

> <ALOGPS_LOGP>
-3.46

> <JCHEM_LOGP>
-1.694913093638562

> <ALOGPS_LOGS>
-3.38

> <JCHEM_MDDR_LIKE_RULE>
0

> <JCHEM_NUMBER_OF_RINGS>
4

> <JCHEM_PHYSIOLOGICAL_CHARGE>
0

> <JCHEM_PKA>
11.830297037788116

> <JCHEM_PKA_STRONGEST_ACIDIC>
3.579739281946898

> <JCHEM_PKA_STRONGEST_BASIC>
9.113107009890703

> <JCHEM_POLAR_SURFACE_AREA>
230.98999999999995

> <JCHEM_REFRACTIVITY>
169.88260000000005

> <JCHEM_ROTATABLE_BOND_COUNT>
3

> <JCHEM_RULE_OF_FIVE>
0

> <ALOGPS_SOLUBILITY>
2.78e-01 g/l

> <JCHEM_TRADITIONAL_IUPAC>
natamycin

> <JCHEM_VEBER_RULE>
0

$$$$
2762
  -OEChem-10051719243D

 29 31  0     0  0  0  0  0  0999 V2000
   -4.0338    0.7196    0.1179 O   0  0  0  0  0  0  0  0  0  0  0  0
   -3.7546   -1.6565   -0.1636 O   0  0  0  0  0  0  0  0  0  0  0  0
    1.3914   -2.4482   -0.1858 O   0  0  0  0  0  0  0  0  0  0  0  0
    4.1343   -0.6797   -1.2156 O   0  0  0  0  0  0  0  0  0  0  0  0
    4.3305   -1.0159    1.0380 O   0  0  0  0  0  0  0  0  0  0  0  0
    0.8121    1.4692    0.2774 N   0  0  0  0  0  0  0  0  0  0  0  0
    2.0786    0.9738    0.2351 N   0  0  0  0  0  0  0  0  0  0  0  0
   -0.3380    0.6741    0.1651 C   0  0  0  0  0  0  0  0  0  0  0  0
   -0.2158   -0.7216   -0.0009 C   0  0  0  0  0  0  0  0  0  0  0  0
   -2.7232    0.3513    0.0924 C   0  0  0  0  0  0  0  0  0  0  0  0
   -1.6411    1.2062    0.2104 C   0  0  0  0  0  0  0  0  0  0  0  0
   -2.5655   -1.0028   -0.0681 C   0  0  0  0  0  0  0  0  0  0  0  0
   -1.3176   -1.5788   -0.1196 C   0  0  0  0  0  0  0  0  0  0  0  0
    0.7104    2.9100    0.4504 C   0  0  0  0  0  0  0  0  0  0  0  0
    1.1412   -1.2632   -0.0466 C   0  0  0  0  0  0  0  0  0  0  0  0
    2.2754   -0.2962    0.0847 C   0  0  0  0  0  0  0  0  0  0  0  0
   -4.6818   -0.5586   -0.0434 C   0  0  0  0  0  0  0  0  0  0  0  0
    0.6912    3.6289   -0.8828 C   0  0  0  0  0  0  0  0  0  0  0  0
    3.7064   -0.7117    0.0550 C   0  0  0  0  0  0  0  0  0  0  0  0
   -1.8378    2.2665    0.3216 H   0  0  0  0  0  0  0  0  0  0  0  0
   -1.2044   -2.6495   -0.2466 H   0  0  0  0  0  0  0  0  0  0  0  0
   -0.1374    3.2073    1.0764 H   0  0  0  0  0  0  0  0  0  0  0  0
    1.5903    3.2623    1.0064 H   0  0  0  0  0  0  0  0  0  0  0  0
   -5.3050   -0.5250   -0.9445 H   0  0  0  0  0  0  0  0  0  0  0  0
   -5.3270   -0.7372    0.8245 H   0  0  0  0  0  0  0  0  0  0  0  0
    1.5850    3.3949   -1.4709 H   0  0  0  0  0  0  0  0  0  0  0  0
   -0.1823    3.3446   -1.4781 H   0  0  0  0  0  0  0  0  0  0  0  0
    0.6595    4.7124   -0.7308 H   0  0  0  0  0  0  0  0  0  0  0  0
    5.0751   -0.9452   -1.2974 H   0  0  0  0  0  0  0  0  0  0  0  0
  1 10  1  0  0  0  0
  1 17  1  0  0  0  0
  2 12  1  0  0  0  0
  2 17  1  0  0  0  0
  3 15  2  0  0  0  0
  4 19  1  0  0  0  0
  4 29  1  0  0  0  0
  5 19  2  0  0  0  0
  6  7  1  0  0  0  0
  6  8  1  0  0  0  0
  6 14  1  0  0  0  0
  7 16  2  0  0  0  0
  8  9  1  0  0  0  0
  8 11  2  0  0  0  0
  9 13  2  0  0  0  0
  9 15  1  0  0  0  0
 10 11  1  0  0  0  0
 10 12  2  0  0  0  0
 11 20  1  0  0  0  0
 12 13  1  0  0  0  0
 13 21  1  0  0  0  0
 14 18  1  0  0  0  0
 14 22  1  0  0  0  0
 14 23  1  0  0  0  0
 15 16  1  0  0  0  0
 16 19  1  0  0  0  0
 17 24  1  0  0  0  0
 17 25  1  0  0  0  0
 18 26  1  0  0  0  0
 18 27  1  0  0  0  0
 18 28  1  0  0  0  0
M  END
> <DATABASE_ID>
DB00827

> <DATABASE_NAME>
drugbank

> <ORIGINAL_SOURCE>
PUBCHEM

> <ORIGINAL_SOURCE_URL>
https://pubchem.ncbi.nlm.nih.gov/rest/pug/compound/inchikey/VDUWPHTZYNWKRN-UHFFFAOYSA-N/SDF?record_type=3d

> <SMILES>
CCN1N=C(C(O)=O)C(=O)C2=CC3=C(OCO3)C=C12

> <INCHI_IDENTIFIER>
InChI=1S/C12H10N2O5/c1-2-14-7-4-9-8(18-5-19-9)3-6(7)11(15)10(13-14)12(16)17/h3-4H,2,5H2,1H3,(H,16,17)

> <INCHI_KEY>
VDUWPHTZYNWKRN-UHFFFAOYSA-N

> <FORMULA>
C12H10N2O5

> <MOLECULAR_WEIGHT>
262.2182

> <EXACT_MASS>
262.05897144

> <JCHEM_ACCEPTOR_COUNT>
7

> <JCHEM_AVERAGE_POLARIZABILITY>
24.72192384473809

> <JCHEM_BIOAVAILABILITY>
1

> <JCHEM_DONOR_COUNT>
1

> <JCHEM_FORMAL_CHARGE>
0

> <JCHEM_GHOSE_FILTER>
1

> <JCHEM_IUPAC>
1-ethyl-4-oxo-1H,4H,7H-[1,3]dioxolo[4,5-g]cinnoline-3-carboxylic acid

> <ALOGPS_LOGP>
1.25

> <JCHEM_LOGP>
1.716116835333333

> <ALOGPS_LOGS>
-2.44

> <JCHEM_MDDR_LIKE_RULE>
0

> <JCHEM_NUMBER_OF_RINGS>
3

> <JCHEM_PHYSIOLOGICAL_CHARGE>
-1

> <JCHEM_PKA_STRONGEST_ACIDIC>
4.930532150363794

> <JCHEM_PKA_STRONGEST_BASIC>
-4.626802411018023

> <JCHEM_POLAR_SURFACE_AREA>
88.43

> <JCHEM_REFRACTIVITY>
73.6022

> <JCHEM_ROTATABLE_BOND_COUNT>
2

> <JCHEM_RULE_OF_FIVE>
1

> <ALOGPS_SOLUBILITY>
9.61e-01 g/l

> <JCHEM_TRADITIONAL_IUPAC>
cinoxacin

> <JCHEM_VEBER_RULE>
0

$$$$

  Mrv1572004111621352D          

 34 37  0  0  0  0            999 V2000
    0.6947   -0.1982    0.0000 C   0  0  1  0  0  0  0  0  0  0  0  0
    0.7047    0.6037    0.0000 C   0  0  2  0  0  0  0  0  0  0  0  0
   -0.0398   -0.6034    0.0000 C   0  0  2  0  0  0  0  0  0  0  0  0
    1.4167   -0.6403    0.0000 C   0  0  1  0  0  0  0  0  0  0  0  0
   -0.0006    1.0215    0.0000 C   0  0  0  0  0  0  0  0  0  0  0  0
    1.4546    1.0457    0.0000 C   0  0  0  0  0  0  0  0  0  0  0  0
    0.7047    1.4287    0.0000 O   0  0  0  0  0  0  0  0  0  0  0  0
   -0.7495   -0.1972    0.0000 C   0  0  1  0  0  0  0  0  0  0  0  0
   -0.0398   -1.4282    0.0000 O   0  0  0  0  0  0  0  0  0  0  0  0
    2.1630   -0.2199    0.0000 C   0  0  0  0  0  0  0  0  0  0  0  0
    1.4167   -1.4651    0.0000 N   0  0  0  0  0  0  0  0  0  0  0  0
   -0.7424    0.6278    0.0000 C   0  0  0  0  0  0  0  0  0  0  0  0
   -0.0006    1.8463    0.0000 O   0  0  0  0  0  0  0  0  0  0  0  0
    2.1694    0.5922    0.0000 C   0  0  0  0  0  0  0  0  0  0  0  0
    1.4546    1.8707    0.0000 O   0  0  0  0  0  0  0  0  0  0  0  0
   -1.4707   -0.6023    0.0000 C   0  0  0  0  0  0  0  0  0  0  0  0
    2.8788   -0.6323    0.0000 O   0  0  0  0  0  0  0  0  0  0  0  0
    2.1243   -1.8727    0.0000 C   0  0  0  0  0  0  0  0  0  0  0  0
    0.6966   -1.8782    0.0000 C   0  0  0  0  0  0  0  0  0  0  0  0
   -1.4412    1.0532    0.0000 C   0  0  0  0  0  0  0  0  0  0  0  0
    2.8854    1.0047    0.0000 C   0  0  0  0  0  0  0  0  0  0  0  0
   -2.1744   -0.1843    0.0000 C   0  0  0  0  0  0  0  0  0  0  0  0
   -2.1744    0.6406    0.0000 C   0  0  0  0  0  0  0  0  0  0  0  0
   -1.4412    1.8782    0.0000 O   0  0  0  0  0  0  0  0  0  0  0  0
    3.6051    0.5877    0.0000 N   0  0  0  0  0  0  0  0  0  0  0  0
    2.8854    1.8248    0.0000 O   0  0  0  0  0  0  0  0  0  0  0  0
   -2.8908   -0.5853    0.0000 C   0  0  0  0  0  0  0  0  0  0  0  0
   -2.8592    1.0532    0.0000 C   0  0  0  0  0  0  0  0  0  0  0  0
   -3.6051   -0.1740    0.0000 C   0  0  0  0  0  0  0  0  0  0  0  0
   -3.6051    0.6522    0.0000 C   0  0  0  0  0  0  0  0  0  0  0  0
   -2.8592    1.8780    0.0000 O   0  0  0  0  0  0  0  0  0  0  0  0
    0.6947   -1.0228    0.0000 H   0  0  0  0  0  0  0  0  0  0  0  0
   -0.7495   -1.0221    0.0000 H   0  0  0  0  0  0  0  0  0  0  0  0
   -1.4806   -1.4271    0.0000 C   0  0  0  0  0  0  0  0  0  0  0  0
  1  2  1  0  0  0  0
  1  3  1  0  0  0  0
  1  4  1  0  0  0  0
  2  5  1  0  0  0  0
  2  6  1  0  0  0  0
  2  7  1  1  0  0  0
  3  8  1  0  0  0  0
  3  9  1  1  0  0  0
  4 10  1  0  0  0  0
  4 11  1  1  0  0  0
  5 12  2  0  0  0  0
  5 13  1  0  0  0  0
  6 14  1  0  0  0  0
  6 15  2  0  0  0  0
  8 16  1  0  0  0  0
 10 17  1  0  0  0  0
 11 18  1  0  0  0  0
 11 19  1  0  0  0  0
 12 20  1  0  0  0  0
 14 21  1  0  0  0  0
 16 22  1  0  0  0  0
 20 23  1  0  0  0  0
 20 24  2  0  0  0  0
 21 25  1  0  0  0  0
 21 26  2  0  0  0  0
 22 27  1  0  0  0  0
 23 28  1  0  0  0  0
 27 29  2  0  0  0  0
 28 30  2  0  0  0  0
 28 31  1  0  0  0  0
  8 12  1  0  0  0  0
 10 14  2  0  0  0  0
 22 23  2  0  0  0  0
 29 30  1  0  0  0  0
  1 32  1  1  0  0  0
  8 33  1  1  0  0  0
 16 34  2  0  0  0  0
M  END
> <DATABASE_ID>
DB00931

> <DATABASE_NAME>
drugbank

> <SMILES>
[H][C@@]12[C@@H](O)[C@]3([H])C(=C)C4=C(C(O)=CC=C4)C(=O)C3=C(O)[C@]1(O)C(=O)C(C(N)=O)=C(O)[C@H]2N(C)C

> <INCHI_IDENTIFIER>
InChI=1S/C22H22N2O8/c1-7-8-5-4-6-9(25)11(8)16(26)12-10(7)17(27)14-15(24(2)3)18(28)13(21(23)31)20(30)22(14,32)19(12)29/h4-6,10,14-15,17,25,27-29,32H,1H2,2-3H3,(H2,23,31)/t10-,14-,15+,17+,22+/m1/s1

> <INCHI_KEY>
MHIGBKBJSQVXNH-IWVLMIASSA-N

> <FORMULA>
C22H22N2O8

> <MOLECULAR_WEIGHT>
442.424

> <EXACT_MASS>
442.137615676

> <JCHEM_ACCEPTOR_COUNT>
9

> <JCHEM_ATOM_COUNT>
54

> <JCHEM_AVERAGE_POLARIZABILITY>
41.95263210043263

> <JCHEM_BIOAVAILABILITY>
1

> <JCHEM_DONOR_COUNT>
6

> <JCHEM_FORMAL_CHARGE>
0

> <JCHEM_GHOSE_FILTER>
0

> <JCHEM_IUPAC>
(4S,4aR,5S,5aR,12aS)-4-(dimethylamino)-3,5,10,12,12a-pentahydroxy-6-methylidene-1,11-dioxo-1,4,4a,5,5a,6,11,12a-octahydrotetracene-2-carboxamide

> <ALOGPS_LOGP>
-0.46

> <JCHEM_LOGP>
-3.50773220089989

> <ALOGPS_LOGS>
-2.59

> <JCHEM_MDDR_LIKE_RULE>
0

> <JCHEM_NUMBER_OF_RINGS>
4

> <JCHEM_PHYSIOLOGICAL_CHARGE>
0

> <JCHEM_PKA>
7.990364362567775

> <JCHEM_PKA_STRONGEST_ACIDIC>
2.8770159010201826

> <JCHEM_PKA_STRONGEST_BASIC>
7.439599869050888

> <JCHEM_POLAR_SURFACE_AREA>
181.62

> <JCHEM_REFRACTIVITY>
113.66939999999995

> <JCHEM_ROTATABLE_BOND_COUNT>
2

> <JCHEM_RULE_OF_FIVE>
0

> <ALOGPS_SOLUBILITY>
1.14e+00 g/l

> <JCHEM_TRADITIONAL_IUPAC>
methacycline

> <JCHEM_VEBER_RULE>
0

> <DRUGBANK_ID>
DB00931

> <SECONDARY_ACCESSION_NUMBERS>
APRD00137

> <DRUG_GROUPS>
approved; investigational

> <GENERIC_NAME>
Metacycline

> <SYNONYMS>
6-Demethyl-6-deoxy-5-hydroxy-6-methylenetetracycline; 6-Deoxy-6-demethyl-6-methylene-5-oxytetracycline; 6-Methylene-5-hydroxytetracycline; 6-Methylene-5-oxytetracycline; 6-Methyleneoxytetracycline; Metaciclina; Metacycline; Methacycline; Methacyclinum; Methylenecycline; Tri-methacycline

> <SALTS>
Metacycline hydrochloride

$$$$
656511
  -OEChem-10051719263D

 61 64  0     1  0  0  0  0  0999 V2000
    3.3288    0.3111   -1.2972 S   0  0  0  0  0  0  0  0  0  0  0  0
   -7.0782   -1.2957   -1.2412 S   0  0  0  0  0  0  0  0  0  0  0  0
    4.0995   -2.0182    2.3624 O   0  0  0  0  0  0  0  0  0  0  0  0
    7.7699   -0.3629    0.7040 O   0  0  0  0  0  0  0  0  0  0  0  0
    7.1185   -2.1547   -0.5456 O   0  0  0  0  0  0  0  0  0  0  0  0
    0.0214   -1.1637   -0.9176 O   0  0  0  0  0  0  0  0  0  0  0  0
   -2.6990    0.8796    2.6268 O   0  0  0  0  0  0  0  0  0  0  0  0
   -3.9568   -0.9458   -1.0647 O   0  0  0  0  0  0  0  0  0  0  0  0
   -6.3177   -1.9663   -2.2833 O   0  0  0  0  0  0  0  0  0  0  0  0
   -8.2778   -1.9047   -0.6897 O   0  0  0  0  0  0  0  0  0  0  0  0
    4.5305   -1.5167    0.0967 N   0  0  0  0  0  0  0  0  0  0  0  0
    1.4993   -0.9201    0.8541 N   0  0  0  0  0  0  0  0  0  0  0  0
   -1.9216    0.0951    0.5987 N   0  0  0  0  0  0  0  0  0  0  0  0
   -4.2105   -0.0414    1.1152 N   0  0  0  0  0  0  0  0  0  0  0  0
   -6.0430   -0.8436    0.0147 N   0  0  0  0  0  0  0  0  0  0  0  0
    3.3812   -1.4523   -0.8110 C   0  0  1  0  0  0  0  0  0  0  0  0
    5.1802    0.4476   -1.1465 C   0  0  0  0  0  0  0  0  0  0  0  0
    5.5152   -0.4545    0.0608 C   0  0  2  0  0  0  0  0  0  0  0  0
    2.5023   -1.8685    0.3765 C   0  0  1  0  0  0  0  0  0  0  0  0
    3.8085   -1.8834    1.1955 C   0  0  0  0  0  0  0  0  0  0  0  0
    5.5508    1.9063   -0.8726 C   0  0  0  0  0  0  0  0  0  0  0  0
    5.7972   -0.0111   -2.4748 C   0  0  0  0  0  0  0  0  0  0  0  0
    6.8624   -1.1025    0.0206 C   0  0  0  0  0  0  0  0  0  0  0  0
    0.3225   -0.6425    0.1546 C   0  0  0  0  0  0  0  0  0  0  0  0
   -0.5339    0.4176    0.8351 C   0  0  1  0  0  0  0  0  0  0  0  0
   -0.1892    1.8091    0.3584 C   0  0  0  0  0  0  0  0  0  0  0  0
   -2.9184    0.3561    1.5317 C   0  0  0  0  0  0  0  0  0  0  0  0
   -5.3440    0.0812    2.0308 C   0  0  0  0  0  0  0  0  0  0  0  0
   -6.6036   -0.1714    1.2059 C   0  0  0  0  0  0  0  0  0  0  0  0
   -4.6303   -0.6466   -0.0897 C   0  0  0  0  0  0  0  0  0  0  0  0
    0.7915    2.5495    1.0186 C   0  0  0  0  0  0  0  0  0  0  0  0
   -0.8511    2.3534   -0.7422 C   0  0  0  0  0  0  0  0  0  0  0  0
    1.1101    3.8342    0.5784 C   0  0  0  0  0  0  0  0  0  0  0  0
   -0.5325    3.6381   -1.1824 C   0  0  0  0  0  0  0  0  0  0  0  0
   -7.5302    0.3091   -1.8590 C   0  0  0  0  0  0  0  0  0  0  0  0
    0.4481    4.3784   -0.5220 C   0  0  0  0  0  0  0  0  0  0  0  0
    3.4484   -2.1709   -1.6329 H   0  0  0  0  0  0  0  0  0  0  0  0
    5.4180    0.0946    1.0076 H   0  0  0  0  0  0  0  0  0  0  0  0
    2.0768   -2.8747    0.2752 H   0  0  0  0  0  0  0  0  0  0  0  0
    5.0787    2.2825    0.0425 H   0  0  0  0  0  0  0  0  0  0  0  0
    5.2504    2.5616   -1.6985 H   0  0  0  0  0  0  0  0  0  0  0  0
    6.6344    2.0130   -0.7480 H   0  0  0  0  0  0  0  0  0  0  0  0
    5.5684   -1.0584   -2.7015 H   0  0  0  0  0  0  0  0  0  0  0  0
    6.8885    0.0896   -2.4553 H   0  0  0  0  0  0  0  0  0  0  0  0
    5.4391    0.5977   -3.3137 H   0  0  0  0  0  0  0  0  0  0  0  0
    1.6574   -0.4257    1.7290 H   0  0  0  0  0  0  0  0  0  0  0  0
   -0.3709    0.3628    1.9192 H   0  0  0  0  0  0  0  0  0  0  0  0
    8.6613   -0.7718    0.6893 H   0  0  0  0  0  0  0  0  0  0  0  0
   -2.1755   -0.3209   -0.2916 H   0  0  0  0  0  0  0  0  0  0  0  0
   -5.2207   -0.6810    2.8091 H   0  0  0  0  0  0  0  0  0  0  0  0
   -5.3479    1.0628    2.5155 H   0  0  0  0  0  0  0  0  0  0  0  0
   -7.3177   -0.8000    1.7428 H   0  0  0  0  0  0  0  0  0  0  0  0
   -7.0666    0.7800    0.9307 H   0  0  0  0  0  0  0  0  0  0  0  0
    1.3159    2.1370    1.8764 H   0  0  0  0  0  0  0  0  0  0  0  0
   -1.6083    1.7970   -1.2873 H   0  0  0  0  0  0  0  0  0  0  0  0
    1.8745    4.4101    1.0917 H   0  0  0  0  0  0  0  0  0  0  0  0
   -1.0449    4.0608   -2.0416 H   0  0  0  0  0  0  0  0  0  0  0  0
   -6.6250    0.8585   -2.1245 H   0  0  0  0  0  0  0  0  0  0  0  0
   -8.1130    0.8434   -1.1078 H   0  0  0  0  0  0  0  0  0  0  0  0
   -8.1417    0.1607   -2.7523 H   0  0  0  0  0  0  0  0  0  0  0  0
    0.6972    5.3781   -0.8656 H   0  0  0  0  0  0  0  0  0  0  0  0
  1 16  1  0  0  0  0
  1 17  1  0  0  0  0
  2  9  2  0  0  0  0
  2 10  2  0  0  0  0
  2 15  1  0  0  0  0
  2 35  1  0  0  0  0
  3 20  2  0  0  0  0
  4 23  1  0  0  0  0
  4 48  1  0  0  0  0
  5 23  2  0  0  0  0
  6 24  2  0  0  0  0
  7 27  2  0  0  0  0
  8 30  2  0  0  0  0
 11 16  1  0  0  0  0
 11 18  1  0  0  0  0
 11 20  1  0  0  0  0
 12 19  1  0  0  0  0
 12 24  1  0  0  0  0
 12 46  1  0  0  0  0
 13 25  1  0  0  0  0
 13 27  1  0  0  0  0
 13 49  1  0  0  0  0
 14 27  1  0  0  0  0
 14 28  1  0  0  0  0
 14 30  1  0  0  0  0
 15 29  1  0  0  0  0
 15 30  1  0  0  0  0
 16 19  1  0  0  0  0
 16 37  1  0  0  0  0
 17 18  1  0  0  0  0
 17 21  1  0  0  0  0
 17 22  1  0  0  0  0
 18 23  1  0  0  0  0
 18 38  1  0  0  0  0
 19 20  1  0  0  0  0
 19 39  1  0  0  0  0
 21 40  1  0  0  0  0
 21 41  1  0  0  0  0
 21 42  1  0  0  0  0
 22 43  1  0  0  0  0
 22 44  1  0  0  0  0
 22 45  1  0  0  0  0
 24 25  1  0  0  0  0
 25 26  1  0  0  0  0
 25 47  1  0  0  0  0
 26 31  2  0  0  0  0
 26 32  1  0  0  0  0
 28 29  1  0  0  0  0
 28 50  1  0  0  0  0
 28 51  1  0  0  0  0
 29 52  1  0  0  0  0
 29 53  1  0  0  0  0
 31 33  1  0  0  0  0
 31 54  1  0  0  0  0
 32 34  2  0  0  0  0
 32 55  1  0  0  0  0
 33 36  2  0  0  0  0
 33 56  1  0  0  0  0
 34 36  1  0  0  0  0
 34 57  1  0  0  0  0
 35 58  1  0  0  0  0
 35 59  1  0  0  0  0
 35 60  1  0  0  0  0
 36 61  1  0  0  0  0
M  END
> <DATABASE_ID>
DB00948

> <DATABASE_NAME>
drugbank

> <ORIGINAL_SOURCE>
PUBCHEM

> <ORIGINAL_SOURCE_URL>
https://pubchem.ncbi.nlm.nih.gov/rest/pug/compound/inchikey/YPBATNHYBCGSSN-VWPFQQQWSA-N/SDF?record_type=3d

> <SMILES>
[H][C@]12SC(C)(C)[C@@H](N1C(=O)[C@H]2NC(=O)[C@H](NC(=O)N1CCN(C1=O)S(C)(=O)=O)C1=CC=CC=C1)C(O)=O

> <INCHI_IDENTIFIER>
InChI=1S/C21H25N5O8S2/c1-21(2)14(18(29)30)26-16(28)13(17(26)35-21)22-15(27)12(11-7-5-4-6-8-11)23-19(31)24-9-10-25(20(24)32)36(3,33)34/h4-8,12-14,17H,9-10H2,1-3H3,(H,22,27)(H,23,31)(H,29,30)/t12-,13-,14+,17-/m1/s1

> <INCHI_KEY>
YPBATNHYBCGSSN-VWPFQQQWSA-N

> <FORMULA>
C21H25N5O8S2

> <MOLECULAR_WEIGHT>
539.582

> <EXACT_MASS>
539.114454181

> <JCHEM_ACCEPTOR_COUNT>
8

> <JCHEM_AVERAGE_POLARIZABILITY>
51.49914225343978

> <JCHEM_BIOAVAILABILITY>
1

> <JCHEM_DONOR_COUNT>
3

> <JCHEM_FORMAL_CHARGE>
0

> <JCHEM_GHOSE_FILTER>
0

> <JCHEM_IUPAC>
(2S,5R,6R)-6-[(2R)-2-[(3-methanesulfonyl-2-oxoimidazolidine-1-carbonyl)amino]-2-phenylacetamido]-3,3-dimethyl-7-oxo-4-thia-1-azabicyclo[3.2.0]heptane-2-carboxylic acid

> <ALOGPS_LOGP>
0.21

> <JCHEM_LOGP>
-0.8415241573333339

> <ALOGPS_LOGS>
-3.06

> <JCHEM_MDDR_LIKE_RULE>
0

> <JCHEM_NUMBER_OF_RINGS>
4

> <JCHEM_PHYSIOLOGICAL_CHARGE>
-1

> <JCHEM_PKA>
11.419862294284583

> <JCHEM_PKA_STRONGEST_ACIDIC>
3.4850654833781647

> <JCHEM_PKA_STRONGEST_BASIC>
-5.9403001768537065

> <JCHEM_POLAR_SURFACE_AREA>
173.5

> <JCHEM_REFRACTIVITY>
124.87790000000001

> <JCHEM_ROTATABLE_BOND_COUNT>
5

> <JCHEM_RULE_OF_FIVE>
0

> <ALOGPS_SOLUBILITY>
4.71e-01 g/l

> <JCHEM_TRADITIONAL_IUPAC>
mezlocillin

> <JCHEM_VEBER_RULE>
0

$$$$
441306
  -OEChem-10051719263D

 74 76  0     1  0  0  0  0  0999 V2000
   -0.7117   -0.1238    0.2893 O   0  0  0  0  0  0  0  0  0  0  0  0
    2.1047    0.2952    0.0882 O   0  0  0  0  0  0  0  0  0  0  0  0
   -2.5914    0.5968    1.4956 O   0  0  0  0  0  0  0  0  0  0  0  0
    1.2359   -2.3729    2.3982 O   0  0  0  0  0  0  0  0  0  0  0  0
   -1.7737    2.1520   -0.8572 O   0  0  0  0  0  0  0  0  0  0  0  0
   -5.9586    1.6527    0.4551 O   0  0  0  0  0  0  0  0  0  0  0  0
    4.1318    1.3652    0.6572 O   0  0  0  0  0  0  0  0  0  0  0  0
   -0.2824   -3.7887    0.2091 N   0  0  0  0  0  0  0  0  0  0  0  0
    2.7269   -3.3443   -0.0080 N   0  0  0  0  0  0  0  0  0  0  0  0
   -4.7476    0.0748   -1.4365 N   0  0  0  0  0  0  0  0  0  0  0  0
    0.6253    2.5585    1.1515 N   0  0  0  0  0  0  0  0  0  0  0  0
    6.1263    0.4966   -1.2948 N   0  0  0  0  0  0  0  0  0  0  0  0
   -0.3385   -1.3953    0.8252 C   0  0  1  0  0  0  0  0  0  0  0  0
   -0.2808   -2.4239   -0.3202 C   0  0  1  0  0  0  0  0  0  0  0  0
    0.9919   -1.2326    1.5808 C   0  0  2  0  0  0  0  0  0  0  0  0
    2.1930   -1.0185    0.6447 C   0  0  1  0  0  0  0  0  0  0  0  0
    2.2772   -2.0430   -0.5030 C   0  0  2  0  0  0  0  0  0  0  0  0
    0.9301   -2.1678   -1.2377 C   0  0  0  0  0  0  0  0  0  0  0  0
   -2.1283    0.0316    0.2688 C   0  0  1  0  0  0  0  0  0  0  0  0
   -4.0114    1.2500   -0.9442 C   0  0  2  0  0  0  0  0  0  0  0  0
   -2.5052    0.9262   -0.9209 C   0  0  1  0  0  0  0  0  0  0  0  0
   -4.5269    1.6708    0.4607 C   0  0  2  0  0  0  0  0  0  0  0  0
   -4.0141    0.7039    1.5373 C   0  0  0  0  0  0  0  0  0  0  0  0
    2.7257    1.2589    0.9385 C   0  0  1  0  0  0  0  0  0  0  0  0
   -0.7879   -4.7219   -0.7838 C   0  0  0  0  0  0  0  0  0  0  0  0
   -4.1148    3.1106    0.8084 C   0  0  0  0  0  0  0  0  0  0  0  0
    2.0394    2.6244    0.7952 C   0  0  1  0  0  0  0  0  0  0  0  0
    2.2047    3.1424   -0.6366 C   0  0  0  0  0  0  0  0  0  0  0  0
   -0.7953   -6.1434   -0.2475 C   0  0  0  0  0  0  0  0  0  0  0  0
   -4.6733   -0.0023   -2.8849 C   0  0  0  0  0  0  0  0  0  0  0  0
    4.4590    2.0874   -0.4766 C   0  0  0  0  0  0  0  0  0  0  0  0
    3.6013    2.8987   -1.1200 C   0  0  0  0  0  0  0  0  0  0  0  0
    5.8686    1.8818   -0.9319 C   0  0  0  0  0  0  0  0  0  0  0  0
   -1.0897   -1.7096    1.5649 H   0  0  0  0  0  0  0  0  0  0  0  0
   -1.1786   -2.2821   -0.9362 H   0  0  0  0  0  0  0  0  0  0  0  0
    0.8853   -0.3760    2.2560 H   0  0  0  0  0  0  0  0  0  0  0  0
    3.1286   -1.1029    1.2171 H   0  0  0  0  0  0  0  0  0  0  0  0
    3.0171   -1.6903   -1.2331 H   0  0  0  0  0  0  0  0  0  0  0  0
    0.7510   -1.2247   -1.7734 H   0  0  0  0  0  0  0  0  0  0  0  0
    1.0042   -2.9250   -2.0271 H   0  0  0  0  0  0  0  0  0  0  0  0
   -2.6166   -0.9427    0.1320 H   0  0  0  0  0  0  0  0  0  0  0  0
   -4.2089    2.0943   -1.6194 H   0  0  0  0  0  0  0  0  0  0  0  0
   -2.1625    0.4441   -1.8420 H   0  0  0  0  0  0  0  0  0  0  0  0
   -0.8756   -3.8399    1.0370 H   0  0  0  0  0  0  0  0  0  0  0  0
   -4.4661   -0.2909    1.4358 H   0  0  0  0  0  0  0  0  0  0  0  0
   -4.2960    1.0582    2.5357 H   0  0  0  0  0  0  0  0  0  0  0  0
    3.6555   -3.2542    0.4020 H   0  0  0  0  0  0  0  0  0  0  0  0
    2.8169   -3.9955   -0.7867 H   0  0  0  0  0  0  0  0  0  0  0  0
    2.6487    0.9578    1.9911 H   0  0  0  0  0  0  0  0  0  0  0  0
    2.0505   -2.2058    2.9021 H   0  0  0  0  0  0  0  0  0  0  0  0
   -1.8125   -4.4590   -1.0737 H   0  0  0  0  0  0  0  0  0  0  0  0
   -0.1736   -4.7128   -1.6897 H   0  0  0  0  0  0  0  0  0  0  0  0
   -4.4384    3.8071    0.0266 H   0  0  0  0  0  0  0  0  0  0  0  0
   -4.6075    3.4399    1.7312 H   0  0  0  0  0  0  0  0  0  0  0  0
   -3.0378    3.2250    0.9533 H   0  0  0  0  0  0  0  0  0  0  0  0
   -5.7280    0.1588   -1.1676 H   0  0  0  0  0  0  0  0  0  0  0  0
    2.5361    3.3322    1.4731 H   0  0  0  0  0  0  0  0  0  0  0  0
   -1.9974    2.6692   -1.6496 H   0  0  0  0  0  0  0  0  0  0  0  0
   -6.2660    1.8544    1.3554 H   0  0  0  0  0  0  0  0  0  0  0  0
    1.5080    2.6473   -1.3248 H   0  0  0  0  0  0  0  0  0  0  0  0
    1.9851    4.2161   -0.6700 H   0  0  0  0  0  0  0  0  0  0  0  0
    0.2144   -6.4666    0.0275 H   0  0  0  0  0  0  0  0  0  0  0  0
   -1.4358   -6.2302    0.6367 H   0  0  0  0  0  0  0  0  0  0  0  0
   -1.1755   -6.8334   -1.0077 H   0  0  0  0  0  0  0  0  0  0  0  0
   -3.6559   -0.1637   -3.2508 H   0  0  0  0  0  0  0  0  0  0  0  0
   -5.0886    0.8910   -3.3635 H   0  0  0  0  0  0  0  0  0  0  0  0
   -5.2667   -0.8574   -3.2255 H   0  0  0  0  0  0  0  0  0  0  0  0
    3.9120    3.4216   -2.0199 H   0  0  0  0  0  0  0  0  0  0  0  0
    0.5280    2.2595    2.1207 H   0  0  0  0  0  0  0  0  0  0  0  0
    0.2111    3.4876    1.0914 H   0  0  0  0  0  0  0  0  0  0  0  0
    6.5559    2.1830   -0.1329 H   0  0  0  0  0  0  0  0  0  0  0  0
    6.0956    2.5151   -1.7971 H   0  0  0  0  0  0  0  0  0  0  0  0
    7.0866    0.4079   -1.6256 H   0  0  0  0  0  0  0  0  0  0  0  0
    6.0631   -0.0920   -0.4645 H   0  0  0  0  0  0  0  0  0  0  0  0
  1 13  1  0  0  0  0
  1 19  1  0  0  0  0
  2 16  1  0  0  0  0
  2 24  1  0  0  0  0
  3 19  1  0  0  0  0
  3 23  1  0  0  0  0
  4 15  1  0  0  0  0
  4 50  1  0  0  0  0
  5 21  1  0  0  0  0
  5 58  1  0  0  0  0
  6 22  1  0  0  0  0
  6 59  1  0  0  0  0
  7 24  1  0  0  0  0
  7 31  1  0  0  0  0
  8 14  1  0  0  0  0
  8 25  1  0  0  0  0
  8 44  1  0  0  0  0
  9 17  1  0  0  0  0
  9 47  1  0  0  0  0
  9 48  1  0  0  0  0
 10 20  1  0  0  0  0
 10 30  1  0  0  0  0
 10 56  1  0  0  0  0
 11 27  1  0  0  0  0
 11 69  1  0  0  0  0
 11 70  1  0  0  0  0
 12 33  1  0  0  0  0
 12 73  1  0  0  0  0
 12 74  1  0  0  0  0
 13 14  1  0  0  0  0
 13 15  1  0  0  0  0
 13 34  1  0  0  0  0
 14 18  1  0  0  0  0
 14 35  1  0  0  0  0
 15 16  1  0  0  0  0
 15 36  1  0  0  0  0
 16 17  1  0  0  0  0
 16 37  1  0  0  0  0
 17 18  1  0  0  0  0
 17 38  1  0  0  0  0
 18 39  1  0  0  0  0
 18 40  1  0  0  0  0
 19 21  1  0  0  0  0
 19 41  1  0  0  0  0
 20 21  1  0  0  0  0
 20 22  1  0  0  0  0
 20 42  1  0  0  0  0
 21 43  1  0  0  0  0
 22 23  1  0  0  0  0
 22 26  1  0  0  0  0
 23 45  1  0  0  0  0
 23 46  1  0  0  0  0
 24 27  1  0  0  0  0
 24 49  1  0  0  0  0
 25 29  1  0  0  0  0
 25 51  1  0  0  0  0
 25 52  1  0  0  0  0
 26 53  1  0  0  0  0
 26 54  1  0  0  0  0
 26 55  1  0  0  0  0
 27 28  1  0  0  0  0
 27 57  1  0  0  0  0
 28 32  1  0  0  0  0
 28 60  1  0  0  0  0
 28 61  1  0  0  0  0
 29 62  1  0  0  0  0
 29 63  1  0  0  0  0
 29 64  1  0  0  0  0
 30 65  1  0  0  0  0
 30 66  1  0  0  0  0
 30 67  1  0  0  0  0
 31 32  2  0  0  0  0
 31 33  1  0  0  0  0
 32 68  1  0  0  0  0
 33 71  1  0  0  0  0
 33 72  1  0  0  0  0
M  END
> <DATABASE_ID>
DB00955

> <DATABASE_NAME>
drugbank

> <ORIGINAL_SOURCE>
PUBCHEM

> <ORIGINAL_SOURCE_URL>
https://pubchem.ncbi.nlm.nih.gov/rest/pug/compound/inchikey/CIDUJQMULVCIBT-MQDUPKMGSA-N/SDF?record_type=3d

> <SMILES>
CCN[C@@H]1C[C@H](N)[C@@H](O[C@H]2OC(CN)=CC[C@H]2N)[C@H](O)[C@H]1O[C@H]1OC[C@](C)(O)[C@H](NC)[C@H]1O

> <INCHI_IDENTIFIER>
InChI=1S/C21H41N5O7/c1-4-26-13-7-12(24)16(32-19-11(23)6-5-10(8-22)31-19)14(27)17(13)33-20-15(28)18(25-3)21(2,29)9-30-20/h5,11-20,25-29H,4,6-9,22-24H2,1-3H3/t11-,12+,13-,14+,15-,16-,17+,18-,19-,20-,21+/m1/s1

> <INCHI_KEY>
CIDUJQMULVCIBT-MQDUPKMGSA-N

> <FORMULA>
C21H41N5O7

> <MOLECULAR_WEIGHT>
475.587

> <EXACT_MASS>
475.30059868

> <JCHEM_ACCEPTOR_COUNT>
12

> <JCHEM_ATOM_COUNT>
74

> <JCHEM_AVERAGE_POLARIZABILITY>
50.758546209094916

> <JCHEM_BIOAVAILABILITY>
0

> <JCHEM_DONOR_COUNT>
8

> <JCHEM_FORMAL_CHARGE>
0

> <JCHEM_GHOSE_FILTER>
0

> <JCHEM_IUPAC>
(2R,3R,4R,5R)-2-{[(1S,2S,3R,4S,6R)-4-amino-3-{[(2S,3R)-3-amino-6-(aminomethyl)-3,4-dihydro-2H-pyran-2-yl]oxy}-6-(ethylamino)-2-hydroxycyclohexyl]oxy}-5-methyl-4-(methylamino)oxane-3,5-diol

> <ALOGPS_LOGP>
-1.42

> <JCHEM_LOGP>
-3.529179202333335

> <ALOGPS_LOGS>
-1.71

> <JCHEM_MDDR_LIKE_RULE>
1

> <JCHEM_NUMBER_OF_RINGS>
3

> <JCHEM_PHYSIOLOGICAL_CHARGE>
5

> <JCHEM_PKA>
13.158974448550211

> <JCHEM_PKA_STRONGEST_ACIDIC>
12.548225162153976

> <JCHEM_PKA_STRONGEST_BASIC>
9.798353036493804

> <JCHEM_POLAR_SURFACE_AREA>
199.73000000000002

> <JCHEM_REFRACTIVITY>
119.84389999999999

> <JCHEM_ROTATABLE_BOND_COUNT>
8

> <JCHEM_RULE_OF_FIVE>
0

> <ALOGPS_SOLUBILITY>
9.20e+00 g/l

> <JCHEM_TRADITIONAL_IUPAC>
1-N-ethylsisomicin

> <JCHEM_VEBER_RULE>
0

$$$$
3454
  -OEChem-10051719273D

 31 32  0     0  0  0  0  0  0999 V2000
   -2.0322    0.4769    0.1502 O   0  0  0  0  0  0  0  0  0  0  0  0
   -4.0346    1.5268    1.7481 O   0  0  0  0  0  0  0  0  0  0  0  0
   -4.7773   -1.6926   -0.8684 O   0  0  0  0  0  0  0  0  0  0  0  0
    4.4283    1.0628    0.4752 O   0  0  0  0  0  0  0  0  0  0  0  0
    0.0754    0.8327   -0.7227 N   0  0  0  0  0  0  0  0  0  0  0  0
    1.1590   -1.2650   -0.1387 N   0  0  0  0  0  0  0  0  0  0  0  0
    1.8434    2.1778   -0.4018 N   0  0  0  0  0  0  0  0  0  0  0  0
    3.4679   -1.0467    0.4842 N   0  0  0  0  0  0  0  0  0  0  0  0
    2.3784   -3.1366    0.4546 N   0  0  0  0  0  0  0  0  0  0  0  0
   -3.3872    0.1163   -0.0811 C   0  0  0  0  0  0  0  0  0  0  0  0
   -1.2691    0.4257   -1.0473 C   0  0  0  0  0  0  0  0  0  0  0  0
    1.1106    0.0563   -0.3272 C   0  0  0  0  0  0  0  0  0  0  0  0
    2.1804    0.8807   -0.1344 C   0  0  0  0  0  0  0  0  0  0  0  0
    0.5701    2.1174   -0.7540 C   0  0  0  0  0  0  0  0  0  0  0  0
   -4.1284    0.1975    1.2470 C   0  0  0  0  0  0  0  0  0  0  0  0
   -3.4266   -1.2950   -0.6560 C   0  0  0  0  0  0  0  0  0  0  0  0
    3.4546    0.3411    0.2967 C   0  0  0  0  0  0  0  0  0  0  0  0
    2.3872   -1.7764    0.2757 C   0  0  0  0  0  0  0  0  0  0  0  0
   -3.8369    0.8339   -0.7794 H   0  0  0  0  0  0  0  0  0  0  0  0
   -1.6666    1.1165   -1.7989 H   0  0  0  0  0  0  0  0  0  0  0  0
   -1.1774   -0.5778   -1.4670 H   0  0  0  0  0  0  0  0  0  0  0  0
   -5.1869   -0.0616    1.1496 H   0  0  0  0  0  0  0  0  0  0  0  0
   -3.6715   -0.4597    1.9938 H   0  0  0  0  0  0  0  0  0  0  0  0
   -2.9517   -1.3695   -1.6359 H   0  0  0  0  0  0  0  0  0  0  0  0
   -2.9403   -2.0132    0.0136 H   0  0  0  0  0  0  0  0  0  0  0  0
   -0.0428    2.9622   -1.0383 H   0  0  0  0  0  0  0  0  0  0  0  0
    0.3648   -1.8813   -0.2768 H   0  0  0  0  0  0  0  0  0  0  0  0
   -4.4591    2.1145    1.1001 H   0  0  0  0  0  0  0  0  0  0  0  0
   -4.7568   -2.6008   -1.2155 H   0  0  0  0  0  0  0  0  0  0  0  0
    1.5419   -3.6864    0.2922 H   0  0  0  0  0  0  0  0  0  0  0  0
    3.2108   -3.6314    0.7560 H   0  0  0  0  0  0  0  0  0  0  0  0
  1 10  1  0  0  0  0
  1 11  1  0  0  0  0
  2 15  1  0  0  0  0
  2 28  1  0  0  0  0
  3 16  1  0  0  0  0
  3 29  1  0  0  0  0
  4 17  2  0  0  0  0
  5 11  1  0  0  0  0
  5 12  1  0  0  0  0
  5 14  1  0  0  0  0
  6 12  1  0  0  0  0
  6 18  1  0  0  0  0
  6 27  1  0  0  0  0
  7 13  1  0  0  0  0
  7 14  2  0  0  0  0
  8 17  1  0  0  0  0
  8 18  2  0  0  0  0
  9 18  1  0  0  0  0
  9 30  1  0  0  0  0
  9 31  1  0  0  0  0
 10 15  1  0  0  0  0
 10 16  1  0  0  0  0
 10 19  1  0  0  0  0
 11 20  1  0  0  0  0
 11 21  1  0  0  0  0
 12 13  2  0  0  0  0
 13 17  1  0  0  0  0
 14 26  1  0  0  0  0
 15 22  1  0  0  0  0
 15 23  1  0  0  0  0
 16 24  1  0  0  0  0
 16 25  1  0  0  0  0
M  END
> <DATABASE_ID>
DB01004

> <DATABASE_NAME>
drugbank

> <ORIGINAL_SOURCE>
PUBCHEM

> <ORIGINAL_SOURCE_URL>
https://pubchem.ncbi.nlm.nih.gov/rest/pug/compound/inchikey/IRSCQMHQWWYFCW-UHFFFAOYSA-N/SDF?record_type=3d

> <SMILES>
NC1=NC2=C(N=CN2COC(CO)CO)C(=O)N1

> <INCHI_IDENTIFIER>
InChI=1S/C9H13N5O4/c10-9-12-7-6(8(17)13-9)11-3-14(7)4-18-5(1-15)2-16/h3,5,15-16H,1-2,4H2,(H3,10,12,13,17)

> <INCHI_KEY>
IRSCQMHQWWYFCW-UHFFFAOYSA-N

> <FORMULA>
C9H13N5O4

> <MOLECULAR_WEIGHT>
255.2306

> <EXACT_MASS>
255.096753929

> <JCHEM_ACCEPTOR_COUNT>
7

> <JCHEM_AVERAGE_POLARIZABILITY>
24.154164573887854

> <JCHEM_BIOAVAILABILITY>
1

> <JCHEM_DONOR_COUNT>
4

> <JCHEM_FORMAL_CHARGE>
0

> <JCHEM_GHOSE_FILTER>
0

> <JCHEM_IUPAC>
2-amino-9-{[(1,3-dihydroxypropan-2-yl)oxy]methyl}-6,9-dihydro-1H-purin-6-one

> <ALOGPS_LOGP>
-1.83

> <JCHEM_LOGP>
-2.179902508666667

> <ALOGPS_LOGS>
-1.35

> <JCHEM_MDDR_LIKE_RULE>
0

> <JCHEM_NUMBER_OF_RINGS>
2

> <JCHEM_PHYSIOLOGICAL_CHARGE>
0

> <JCHEM_PKA>
14.298583858244307

> <JCHEM_PKA_STRONGEST_ACIDIC>
10.159807017663518

> <JCHEM_PKA_STRONGEST_BASIC>
1.7601277428844484

> <JCHEM_POLAR_SURFACE_AREA>
134.99

> <JCHEM_REFRACTIVITY>
61.029300000000006

> <JCHEM_ROTATABLE_BOND_COUNT>
5

> <JCHEM_RULE_OF_FIVE>
1

> <ALOGPS_SOLUBILITY>
1.15e+01 g/l

> <JCHEM_TRADITIONAL_IUPAC>
gancyclovir

> <JCHEM_VEBER_RULE>
0

$$$$
5379
  -OEChem-10051719283D

 49 52  0     1  0  0  0  0  0999 V2000
    1.8058   -3.0140    0.0840 F   0  0  0  0  0  0  0  0  0  0  0  0
    1.0471    1.6316   -0.3233 O   0  0  0  0  0  0  0  0  0  0  0  0
   -3.2082   -2.5927    0.2126 O   0  0  0  0  0  0  0  0  0  0  0  0
   -5.4991   -1.4815    0.8278 O   0  0  0  0  0  0  0  0  0  0  0  0
   -5.9449    0.3473   -0.4711 O   0  0  0  0  0  0  0  0  0  0  0  0
   -1.8264    1.2219   -0.1874 N   0  0  0  0  0  0  0  0  0  0  0  0
    2.7898   -0.4561   -0.1882 N   0  0  1  0  0  0  0  0  0  0  0  0
    5.6306   -0.2029   -0.2056 N   0  0  0  0  0  0  0  0  0  0  0  0
   -1.4579    2.6496   -0.3329 C   0  0  0  0  0  0  0  0  0  0  0  0
   -1.9590    3.6680    0.6344 C   0  0  0  0  0  0  0  0  0  0  0  0
   -0.5063    3.2922    0.6189 C   0  0  0  0  0  0  0  0  0  0  0  0
   -0.8765    0.1630   -0.1210 C   0  0  0  0  0  0  0  0  0  0  0  0
   -3.1754    0.9336   -0.1147 C   0  0  0  0  0  0  0  0  0  0  0  0
    0.5088    0.3833   -0.1888 C   0  0  0  0  0  0  0  0  0  0  0  0
   -1.3270   -1.1678    0.0183 C   0  0  0  0  0  0  0  0  0  0  0  0
    1.4105   -0.6825   -0.1199 C   0  0  0  0  0  0  0  0  0  0  0  0
    3.5136   -0.2155    1.0685 C   0  0  0  0  0  0  0  0  0  0  0  0
    4.8349    0.5181    0.7943 C   0  0  1  0  0  0  0  0  0  0  0  0
    3.5738   -1.0669   -1.2663 C   0  0  0  0  0  0  0  0  0  0  0  0
    4.8899   -0.3159   -1.4605 C   0  0  0  0  0  0  0  0  0  0  0  0
   -3.7069   -0.2880    0.0172 C   0  0  0  0  0  0  0  0  0  0  0  0
   -2.7848   -1.4496    0.0937 C   0  0  0  0  0  0  0  0  0  0  0  0
   -0.4226   -2.2347    0.0871 C   0  0  0  0  0  0  0  0  0  0  0  0
    0.9458   -1.9874    0.0177 C   0  0  0  0  0  0  0  0  0  0  0  0
    5.6509    0.6544    2.0785 C   0  0  0  0  0  0  0  0  0  0  0  0
   -5.1642   -0.4104    0.0775 C   0  0  0  0  0  0  0  0  0  0  0  0
    1.2578    2.1029   -1.6510 C   0  0  0  0  0  0  0  0  0  0  0  0
   -1.4330    2.9588   -1.3728 H   0  0  0  0  0  0  0  0  0  0  0  0
   -2.5442    3.3490    1.4882 H   0  0  0  0  0  0  0  0  0  0  0  0
   -2.2323    4.6420    0.2469 H   0  0  0  0  0  0  0  0  0  0  0  0
    0.1731    4.0567    0.2603 H   0  0  0  0  0  0  0  0  0  0  0  0
   -0.1644    2.7722    1.5071 H   0  0  0  0  0  0  0  0  0  0  0  0
   -3.8097    1.8124   -0.1833 H   0  0  0  0  0  0  0  0  0  0  0  0
    3.6960   -1.1757    1.5690 H   0  0  0  0  0  0  0  0  0  0  0  0
    2.9036    0.3950    1.7469 H   0  0  0  0  0  0  0  0  0  0  0  0
    4.6209    1.5274    0.4189 H   0  0  0  0  0  0  0  0  0  0  0  0
    3.0113   -1.0405   -2.2077 H   0  0  0  0  0  0  0  0  0  0  0  0
    3.7796   -2.1185   -1.0314 H   0  0  0  0  0  0  0  0  0  0  0  0
    5.5073   -0.8432   -2.1959 H   0  0  0  0  0  0  0  0  0  0  0  0
    4.7012    0.6847   -1.8686 H   0  0  0  0  0  0  0  0  0  0  0  0
    5.8446   -1.1376    0.1430 H   0  0  0  0  0  0  0  0  0  0  0  0
   -0.7650   -3.2602    0.1943 H   0  0  0  0  0  0  0  0  0  0  0  0
    5.0890    1.2139    2.8341 H   0  0  0  0  0  0  0  0  0  0  0  0
    5.9031   -0.3239    2.5033 H   0  0  0  0  0  0  0  0  0  0  0  0
    6.5862    1.1938    1.8927 H   0  0  0  0  0  0  0  0  0  0  0  0
    0.4355    1.8306   -2.3206 H   0  0  0  0  0  0  0  0  0  0  0  0
    2.1902    1.6873   -2.0450 H   0  0  0  0  0  0  0  0  0  0  0  0
    1.3580    3.1914   -1.6323 H   0  0  0  0  0  0  0  0  0  0  0  0
   -6.4711   -1.5972    0.8921 H   0  0  0  0  0  0  0  0  0  0  0  0
  1 24  1  0  0  0  0
  2 14  1  0  0  0  0
  2 27  1  0  0  0  0
  3 22  2  0  0  0  0
  4 26  1  0  0  0  0
  4 49  1  0  0  0  0
  5 26  2  0  0  0  0
  6  9  1  0  0  0  0
  6 12  1  0  0  0  0
  6 13  1  0  0  0  0
  7 16  1  0  0  0  0
  7 17  1  0  0  0  0
  7 19  1  0  0  0  0
  8 18  1  0  0  0  0
  8 20  1  0  0  0  0
  8 41  1  0  0  0  0
  9 10  1  0  0  0  0
  9 11  1  0  0  0  0
  9 28  1  0  0  0  0
 10 11  1  0  0  0  0
 10 29  1  0  0  0  0
 10 30  1  0  0  0  0
 11 31  1  0  0  0  0
 11 32  1  0  0  0  0
 12 14  2  0  0  0  0
 12 15  1  0  0  0  0
 13 21  2  0  0  0  0
 13 33  1  0  0  0  0
 14 16  1  0  0  0  0
 15 22  1  0  0  0  0
 15 23  2  0  0  0  0
 16 24  2  0  0  0  0
 17 18  1  0  0  0  0
 17 34  1  0  0  0  0
 17 35  1  0  0  0  0
 18 25  1  0  0  0  0
 18 36  1  0  0  0  0
 19 20  1  0  0  0  0
 19 37  1  0  0  0  0
 19 38  1  0  0  0  0
 20 39  1  0  0  0  0
 20 40  1  0  0  0  0
 21 22  1  0  0  0  0
 21 26  1  0  0  0  0
 23 24  1  0  0  0  0
 23 42  1  0  0  0  0
 25 43  1  0  0  0  0
 25 44  1  0  0  0  0
 25 45  1  0  0  0  0
 27 46  1  0  0  0  0
 27 47  1  0  0  0  0
 27 48  1  0  0  0  0
M  END
> <DATABASE_ID>
DB01044

> <DATABASE_NAME>
drugbank

> <ORIGINAL_SOURCE>
PUBCHEM

> <ORIGINAL_SOURCE_URL>
https://pubchem.ncbi.nlm.nih.gov/rest/pug/compound/inchikey/XUBOMFCQGDBHNK-UHFFFAOYSA-N/SDF?record_type=3d

> <SMILES>
COC1=C2N(C=C(C(O)=O)C(=O)C2=CC(F)=C1N1CCNC(C)C1)C1CC1

> <INCHI_IDENTIFIER>
InChI=1S/C19H22FN3O4/c1-10-8-22(6-5-21-10)16-14(20)7-12-15(18(16)27-2)23(11-3-4-11)9-13(17(12)24)19(25)26/h7,9-11,21H,3-6,8H2,1-2H3,(H,25,26)

> <INCHI_KEY>
XUBOMFCQGDBHNK-UHFFFAOYSA-N

> <FORMULA>
C19H22FN3O4

> <MOLECULAR_WEIGHT>
375.3941

> <EXACT_MASS>
375.159434412

> <JCHEM_ACCEPTOR_COUNT>
7

> <JCHEM_AVERAGE_POLARIZABILITY>
38.29354073254589

> <JCHEM_BIOAVAILABILITY>
1

> <JCHEM_DONOR_COUNT>
2

> <JCHEM_FORMAL_CHARGE>
0

> <JCHEM_GHOSE_FILTER>
0

> <JCHEM_IUPAC>
1-cyclopropyl-6-fluoro-8-methoxy-7-(3-methylpiperazin-1-yl)-4-oxo-1,4-dihydroquinoline-3-carboxylic acid

> <ALOGPS_LOGP>
-0.23

> <JCHEM_LOGP>
-0.5803196184255874

> <ALOGPS_LOGS>
-2.77

> <JCHEM_MDDR_LIKE_RULE>
0

> <JCHEM_NUMBER_OF_RINGS>
4

> <JCHEM_PHYSIOLOGICAL_CHARGE>
0

> <JCHEM_PKA_STRONGEST_ACIDIC>
5.68533412718849

> <JCHEM_PKA_STRONGEST_BASIC>
8.728713815033682

> <JCHEM_POLAR_SURFACE_AREA>
82.11

> <JCHEM_REFRACTIVITY>
98.82140000000001

> <JCHEM_ROTATABLE_BOND_COUNT>
4

> <JCHEM_RULE_OF_FIVE>
1

> <ALOGPS_SOLUBILITY>
6.31e-01 g/l

> <JCHEM_TRADITIONAL_IUPAC>
gatifloxacin

> <JCHEM_VEBER_RULE>
0

$$$$
5904
  -OEChem-10051719283D

 41 43  0     1  0  0  0  0  0999 V2000
   -0.8019    1.2308    0.5170 S   0  0  0  0  0  0  0  0  0  0  0  0
   -2.2842   -2.5451   -1.2026 O   0  0  0  0  0  0  0  0  0  0  0  0
   -5.3517    1.0760   -0.8170 O   0  0  0  0  0  0  0  0  0  0  0  0
   -5.1157   -0.6970    0.5961 O   0  0  0  0  0  0  0  0  0  0  0  0
    2.1598   -2.0405    1.2167 O   0  0  0  0  0  0  0  0  0  0  0  0
   -2.4781   -0.7369    0.3018 N   0  0  0  0  0  0  0  0  0  0  0  0
    0.5677   -1.3807   -0.3375 N   0  0  0  0  0  0  0  0  0  0  0  0
   -1.3100   -0.4177    1.1279 C   0  0  1  0  0  0  0  0  0  0  0  0
   -2.5670    1.6679    0.1134 C   0  0  0  0  0  0  0  0  0  0  0  0
   -3.1671    0.3360   -0.3862 C   0  0  2  0  0  0  0  0  0  0  0  0
   -0.6142   -1.6325    0.4990 C   0  0  1  0  0  0  0  0  0  0  0  0
   -1.9181   -1.8261   -0.3007 C   0  0  0  0  0  0  0  0  0  0  0  0
   -3.2193    2.2224    1.3871 C   0  0  0  0  0  0  0  0  0  0  0  0
   -2.5771    2.7313   -0.9863 C   0  0  0  0  0  0  0  0  0  0  0  0
   -4.6296    0.1576   -0.1297 C   0  0  0  0  0  0  0  0  0  0  0  0
    1.8730   -1.6107    0.1024 C   0  0  0  0  0  0  0  0  0  0  0  0
    2.9020   -1.2655   -0.9563 C   0  0  0  0  0  0  0  0  0  0  0  0
    3.8679   -0.1949   -0.5225 C   0  0  0  0  0  0  0  0  0  0  0  0
    3.5670    1.1373   -0.7687 C   0  0  0  0  0  0  0  0  0  0  0  0
    5.0457   -0.5556    0.1171 C   0  0  0  0  0  0  0  0  0  0  0  0
    4.4619    2.1290   -0.3670 C   0  0  0  0  0  0  0  0  0  0  0  0
    5.9405    0.4362    0.5190 C   0  0  0  0  0  0  0  0  0  0  0  0
    5.6486    1.7786    0.2769 C   0  0  0  0  0  0  0  0  0  0  0  0
   -1.5167   -0.4852    2.1999 H   0  0  0  0  0  0  0  0  0  0  0  0
   -2.9961    0.1926   -1.4616 H   0  0  0  0  0  0  0  0  0  0  0  0
   -0.4509   -2.4585    1.2025 H   0  0  0  0  0  0  0  0  0  0  0  0
   -3.2655    1.4761    2.1882 H   0  0  0  0  0  0  0  0  0  0  0  0
   -2.6724    3.0921    1.7709 H   0  0  0  0  0  0  0  0  0  0  0  0
   -4.2446    2.5572    1.1944 H   0  0  0  0  0  0  0  0  0  0  0  0
   -2.0666    3.6467   -0.6644 H   0  0  0  0  0  0  0  0  0  0  0  0
   -2.0842    2.3779   -1.8995 H   0  0  0  0  0  0  0  0  0  0  0  0
   -3.6008    3.0119   -1.2561 H   0  0  0  0  0  0  0  0  0  0  0  0
    0.4359   -1.0113   -1.2762 H   0  0  0  0  0  0  0  0  0  0  0  0
   -6.3150    0.9762   -0.6611 H   0  0  0  0  0  0  0  0  0  0  0  0
    3.4453   -2.1891   -1.1950 H   0  0  0  0  0  0  0  0  0  0  0  0
    2.4229   -0.9646   -1.8960 H   0  0  0  0  0  0  0  0  0  0  0  0
    2.6443    1.4206   -1.2675 H   0  0  0  0  0  0  0  0  0  0  0  0
    5.2818   -1.5979    0.3120 H   0  0  0  0  0  0  0  0  0  0  0  0
    4.2343    3.1743   -0.5548 H   0  0  0  0  0  0  0  0  0  0  0  0
    6.8642    0.1634    1.0209 H   0  0  0  0  0  0  0  0  0  0  0  0
    6.3451    2.5508    0.5901 H   0  0  0  0  0  0  0  0  0  0  0  0
  1  8  1  0  0  0  0
  1  9  1  0  0  0  0
  2 12  2  0  0  0  0
  3 15  1  0  0  0  0
  3 34  1  0  0  0  0
  4 15  2  0  0  0  0
  5 16  2  0  0  0  0
  6  8  1  0  0  0  0
  6 10  1  0  0  0  0
  6 12  1  0  0  0  0
  7 11  1  0  0  0  0
  7 16  1  0  0  0  0
  7 33  1  0  0  0  0
  8 11  1  0  0  0  0
  8 24  1  0  0  0  0
  9 10  1  0  0  0  0
  9 13  1  0  0  0  0
  9 14  1  0  0  0  0
 10 15  1  0  0  0  0
 10 25  1  0  0  0  0
 11 12  1  0  0  0  0
 11 26  1  0  0  0  0
 13 27  1  0  0  0  0
 13 28  1  0  0  0  0
 13 29  1  0  0  0  0
 14 30  1  0  0  0  0
 14 31  1  0  0  0  0
 14 32  1  0  0  0  0
 16 17  1  0  0  0  0
 17 18  1  0  0  0  0
 17 35  1  0  0  0  0
 17 36  1  0  0  0  0
 18 19  2  0  0  0  0
 18 20  1  0  0  0  0
 19 21  1  0  0  0  0
 19 37  1  0  0  0  0
 20 22  2  0  0  0  0
 20 38  1  0  0  0  0
 21 23  2  0  0  0  0
 21 39  1  0  0  0  0
 22 23  1  0  0  0  0
 22 40  1  0  0  0  0
 23 41  1  0  0  0  0
M  END
> <DATABASE_ID>
DB01053

> <DATABASE_NAME>
drugbank

> <ORIGINAL_SOURCE>
PUBCHEM

> <ORIGINAL_SOURCE_URL>
https://pubchem.ncbi.nlm.nih.gov/rest/pug/compound/inchikey/JGSARLDLIJGVTE-MBNYWOFBSA-N/SDF?record_type=3d

> <SMILES>
[H][C@]12SC(C)(C)[C@@H](N1C(=O)[C@H]2NC(=O)CC1=CC=CC=C1)C(O)=O

> <INCHI_IDENTIFIER>
InChI=1S/C16H18N2O4S/c1-16(2)12(15(21)22)18-13(20)11(14(18)23-16)17-10(19)8-9-6-4-3-5-7-9/h3-7,11-12,14H,8H2,1-2H3,(H,17,19)(H,21,22)/t11-,12+,14-/m1/s1

> <INCHI_KEY>
JGSARLDLIJGVTE-MBNYWOFBSA-N

> <FORMULA>
C16H18N2O4S

> <MOLECULAR_WEIGHT>
334.39

> <EXACT_MASS>
334.098727764

> <JCHEM_ACCEPTOR_COUNT>
4

> <JCHEM_AVERAGE_POLARIZABILITY>
33.541594084546915

> <JCHEM_BIOAVAILABILITY>
1

> <JCHEM_DONOR_COUNT>
2

> <JCHEM_FORMAL_CHARGE>
0

> <JCHEM_GHOSE_FILTER>
1

> <JCHEM_IUPAC>
(2S,5R,6R)-3,3-dimethyl-7-oxo-6-(2-phenylacetamido)-4-thia-1-azabicyclo[3.2.0]heptane-2-carboxylic acid

> <ALOGPS_LOGP>
1.92

> <JCHEM_LOGP>
1.0806779529999997

> <ALOGPS_LOGS>
-3.07

> <JCHEM_MDDR_LIKE_RULE>
0

> <JCHEM_NUMBER_OF_RINGS>
3

> <JCHEM_PHYSIOLOGICAL_CHARGE>
-1

> <JCHEM_PKA>
12.119397282151533

> <JCHEM_PKA_STRONGEST_ACIDIC>
3.5292810836901047

> <JCHEM_PKA_STRONGEST_BASIC>
-2.634074595453018

> <JCHEM_POLAR_SURFACE_AREA>
86.71

> <JCHEM_REFRACTIVITY>
84.52780000000003

> <JCHEM_ROTATABLE_BOND_COUNT>
4

> <JCHEM_RULE_OF_FIVE>
1

> <ALOGPS_SOLUBILITY>
2.85e-01 g/l

> <JCHEM_TRADITIONAL_IUPAC>
penicillin G

> <JCHEM_VEBER_RULE>
0

$$$$
33613
  -OEChem-10051719283D

 44 46  0     1  0  0  0  0  0999 V2000
    0.8127   -0.5305    1.0470 S   0  0  0  0  0  0  0  0  0  0  0  0
    2.5412    1.9384   -2.1377 O   0  0  0  0  0  0  0  0  0  0  0  0
    5.1164   -1.8059   -0.0667 O   0  0  0  0  0  0  0  0  0  0  0  0
    4.3753   -0.4801    1.6331 O   0  0  0  0  0  0  0  0  0  0  0  0
   -1.1798    2.4440    1.6021 O   0  0  0  0  0  0  0  0  0  0  0  0
   -4.1594   -3.4891    0.0834 O   0  0  0  0  0  0  0  0  0  0  0  0
    2.7863    0.7498   -0.1147 N   0  0  0  0  0  0  0  0  0  0  0  0
   -0.1496    1.9689   -0.4201 N   0  0  0  0  0  0  0  0  0  0  0  0
   -3.5725    2.8271    0.2755 N   0  0  0  0  0  0  0  0  0  0  0  0
    1.8063    1.0059    0.9417 C   0  0  1  0  0  0  0  0  0  0  0  0
    1.8293   -1.4420   -0.2179 C   0  0  0  0  0  0  0  0  0  0  0  0
    3.1210   -0.6204   -0.4284 C   0  0  2  0  0  0  0  0  0  0  0  0
    1.2349    2.1188    0.0479 C   0  0  1  0  0  0  0  0  0  0  0  0
    2.2954    1.6814   -0.9812 C   0  0  0  0  0  0  0  0  0  0  0  0
    2.0775   -2.8717    0.2742 C   0  0  0  0  0  0  0  0  0  0  0  0
    1.0045   -1.4983   -1.5148 C   0  0  0  0  0  0  0  0  0  0  0  0
    4.2478   -0.9379    0.5072 C   0  0  0  0  0  0  0  0  0  0  0  0
   -1.2582    2.1473    0.4110 C   0  0  0  0  0  0  0  0  0  0  0  0
   -2.5838    1.9144   -0.3056 C   0  0  1  0  0  0  0  0  0  0  0  0
   -3.0064    0.4636   -0.2012 C   0  0  0  0  0  0  0  0  0  0  0  0
   -3.1874   -0.2708   -1.3592 C   0  0  0  0  0  0  0  0  0  0  0  0
   -3.2022   -0.0926    1.0502 C   0  0  0  0  0  0  0  0  0  0  0  0
   -3.5775   -1.6066   -1.2626 C   0  0  0  0  0  0  0  0  0  0  0  0
   -3.5921   -1.4285    1.1467 C   0  0  0  0  0  0  0  0  0  0  0  0
   -3.7798   -2.1854   -0.0097 C   0  0  0  0  0  0  0  0  0  0  0  0
    2.2561    1.3404    1.8807 H   0  0  0  0  0  0  0  0  0  0  0  0
    3.4766   -0.6650   -1.4646 H   0  0  0  0  0  0  0  0  0  0  0  0
    1.4211    3.1321    0.4236 H   0  0  0  0  0  0  0  0  0  0  0  0
    1.1390   -3.4302    0.3738 H   0  0  0  0  0  0  0  0  0  0  0  0
    2.7069   -3.4212   -0.4352 H   0  0  0  0  0  0  0  0  0  0  0  0
    2.5758   -2.8963    1.2496 H   0  0  0  0  0  0  0  0  0  0  0  0
    1.5603   -2.0263   -2.2987 H   0  0  0  0  0  0  0  0  0  0  0  0
    0.0600   -2.0365   -1.3702 H   0  0  0  0  0  0  0  0  0  0  0  0
    0.7635   -0.5048   -1.9058 H   0  0  0  0  0  0  0  0  0  0  0  0
   -0.3223    1.7159   -1.3903 H   0  0  0  0  0  0  0  0  0  0  0  0
   -2.4633    2.1960   -1.3593 H   0  0  0  0  0  0  0  0  0  0  0  0
    5.8621   -2.0269    0.5312 H   0  0  0  0  0  0  0  0  0  0  0  0
   -4.4541    2.7374   -0.2289 H   0  0  0  0  0  0  0  0  0  0  0  0
   -3.2689    3.7907    0.1369 H   0  0  0  0  0  0  0  0  0  0  0  0
   -3.0315    0.1684   -2.3400 H   0  0  0  0  0  0  0  0  0  0  0  0
   -3.0658    0.4817    1.9615 H   0  0  0  0  0  0  0  0  0  0  0  0
   -3.7211   -2.1915   -2.1670 H   0  0  0  0  0  0  0  0  0  0  0  0
   -3.7470   -1.8675    2.1286 H   0  0  0  0  0  0  0  0  0  0  0  0
   -4.2526   -3.7236    1.0227 H   0  0  0  0  0  0  0  0  0  0  0  0
  1 10  1  0  0  0  0
  1 11  1  0  0  0  0
  2 14  2  0  0  0  0
  3 17  1  0  0  0  0
  3 37  1  0  0  0  0
  4 17  2  0  0  0  0
  5 18  2  0  0  0  0
  6 25  1  0  0  0  0
  6 44  1  0  0  0  0
  7 10  1  0  0  0  0
  7 12  1  0  0  0  0
  7 14  1  0  0  0  0
  8 13  1  0  0  0  0
  8 18  1  0  0  0  0
  8 35  1  0  0  0  0
  9 19  1  0  0  0  0
  9 38  1  0  0  0  0
  9 39  1  0  0  0  0
 10 13  1  0  0  0  0
 10 26  1  0  0  0  0
 11 12  1  0  0  0  0
 11 15  1  0  0  0  0
 11 16  1  0  0  0  0
 12 17  1  0  0  0  0
 12 27  1  0  0  0  0
 13 14  1  0  0  0  0
 13 28  1  0  0  0  0
 15 29  1  0  0  0  0
 15 30  1  0  0  0  0
 15 31  1  0  0  0  0
 16 32  1  0  0  0  0
 16 33  1  0  0  0  0
 16 34  1  0  0  0  0
 18 19  1  0  0  0  0
 19 20  1  0  0  0  0
 19 36  1  0  0  0  0
 20 21  2  0  0  0  0
 20 22  1  0  0  0  0
 21 23  1  0  0  0  0
 21 40  1  0  0  0  0
 22 24  2  0  0  0  0
 22 41  1  0  0  0  0
 23 25  2  0  0  0  0
 23 42  1  0  0  0  0
 24 25  1  0  0  0  0
 24 43  1  0  0  0  0
M  END
> <DATABASE_ID>
DB01060

> <DATABASE_NAME>
drugbank

> <ORIGINAL_SOURCE>
PUBCHEM

> <ORIGINAL_SOURCE_URL>
https://pubchem.ncbi.nlm.nih.gov/rest/pug/compound/inchikey/LSQZJLSUYDQPKJ-NJBDSQKTSA-N/SDF?record_type=3d

> <SMILES>
[H][C@]12SC(C)(C)[C@@H](N1C(=O)[C@H]2NC(=O)[C@H](N)C1=CC=C(O)C=C1)C(O)=O

> <INCHI_IDENTIFIER>
InChI=1S/C16H19N3O5S/c1-16(2)11(15(23)24)19-13(22)10(14(19)25-16)18-12(21)9(17)7-3-5-8(20)6-4-7/h3-6,9-11,14,20H,17H2,1-2H3,(H,18,21)(H,23,24)/t9-,10-,11+,14-/m1/s1

> <INCHI_KEY>
LSQZJLSUYDQPKJ-NJBDSQKTSA-N

> <FORMULA>
C16H19N3O5S

> <MOLECULAR_WEIGHT>
365.404

> <EXACT_MASS>
365.104541423

> <JCHEM_ACCEPTOR_COUNT>
6

> <JCHEM_AVERAGE_POLARIZABILITY>
35.52711971930114

> <JCHEM_BIOAVAILABILITY>
1

> <JCHEM_DONOR_COUNT>
4

> <JCHEM_FORMAL_CHARGE>
0

> <JCHEM_GHOSE_FILTER>
0

> <JCHEM_IUPAC>
(2S,5R,6R)-6-[(2R)-2-amino-2-(4-hydroxyphenyl)acetamido]-3,3-dimethyl-7-oxo-4-thia-1-azabicyclo[3.2.0]heptane-2-carboxylic acid

> <ALOGPS_LOGP>
0.75

> <JCHEM_LOGP>
-2.310176132597505

> <ALOGPS_LOGS>
-2.58

> <JCHEM_MDDR_LIKE_RULE>
0

> <JCHEM_NUMBER_OF_RINGS>
3

> <JCHEM_PHYSIOLOGICAL_CHARGE>
0

> <JCHEM_PKA>
9.479773257626581

> <JCHEM_PKA_STRONGEST_ACIDIC>
3.23146046520975

> <JCHEM_PKA_STRONGEST_BASIC>
7.429732430412562

> <JCHEM_POLAR_SURFACE_AREA>
132.96

> <JCHEM_REFRACTIVITY>
89.50440000000002

> <JCHEM_ROTATABLE_BOND_COUNT>
4

> <JCHEM_RULE_OF_FIVE>
1

> <ALOGPS_SOLUBILITY>
9.58e-01 g/l

> <JCHEM_TRADITIONAL_IUPAC>
amoxicillin

> <JCHEM_VEBER_RULE>
0

$$$$
5479529
  -OEChem-10051719303D

 45 47  0     1  0  0  0  0  0999 V2000
   -0.7028    1.1939   -1.6963 S   0  0  0  0  0  0  0  0  0  0  0  0
    0.2661    0.0799    2.7120 O   0  0  0  0  0  0  0  0  0  0  0  0
   -5.2666    0.3533   -0.9703 O   0  0  0  0  0  0  0  0  0  0  0  0
   -2.8890   -0.2047    2.9069 O   0  0  0  0  0  0  0  0  0  0  0  0
   -2.7613   -2.1368    1.6900 O   0  0  0  0  0  0  0  0  0  0  0  0
    3.2661    0.8190    1.8701 O   0  0  0  0  0  0  0  0  0  0  0  0
    4.9375   -1.8039   -1.3185 O   0  0  0  0  0  0  0  0  0  0  0  0
    4.7147    2.2778   -0.4803 O   0  0  0  0  0  0  0  0  0  0  0  0
   -6.8707   -1.2836   -1.1880 O   0  0  0  0  0  0  0  0  0  0  0  0
   -1.0940    0.6581    0.8745 N   0  0  0  0  0  0  0  0  0  0  0  0
    1.8251    1.1082    0.0400 N   0  0  0  0  0  0  0  0  0  0  0  0
    4.8913    0.9338   -0.8375 N   0  0  0  0  0  0  0  0  0  0  0  0
   -7.3956    0.9360   -1.4789 N   0  0  0  0  0  0  0  0  0  0  0  0
   -0.6787    1.7563    0.0211 C   0  0  1  0  0  0  0  0  0  0  0  0
    0.6814    1.6810    0.7490 C   0  0  1  0  0  0  0  0  0  0  0  0
   -0.0264    0.6758    1.7018 C   0  0  0  0  0  0  0  0  0  0  0  0
   -2.2487   -0.0357    0.7036 C   0  0  0  0  0  0  0  0  0  0  0  0
   -2.9607    0.0482   -0.4455 C   0  0  0  0  0  0  0  0  0  0  0  0
   -2.4913    0.8318   -1.6693 C   0  0  0  0  0  0  0  0  0  0  0  0
   -4.2912   -0.6257   -0.6806 C   0  0  0  0  0  0  0  0  0  0  0  0
   -2.6566   -0.9314    1.7961 C   0  0  0  0  0  0  0  0  0  0  0  0
    2.9950    0.7396    0.6825 C   0  0  0  0  0  0  0  0  0  0  0  0
    4.0249    0.1648   -0.2514 C   0  0  0  0  0  0  0  0  0  0  0  0
    4.0086   -1.2809   -0.4759 C   0  0  0  0  0  0  0  0  0  0  0  0
   -6.5393   -0.1031   -1.2101 C   0  0  0  0  0  0  0  0  0  0  0  0
    3.1961   -2.2725    0.0228 C   0  0  0  0  0  0  0  0  0  0  0  0
    3.6554   -3.4824   -0.5502 C   0  0  0  0  0  0  0  0  0  0  0  0
    4.7157   -3.1440   -1.3581 C   0  0  0  0  0  0  0  0  0  0  0  0
    5.6950    3.0471   -1.1594 C   0  0  0  0  0  0  0  0  0  0  0  0
   -1.2353    2.6810    0.2145 H   0  0  0  0  0  0  0  0  0  0  0  0
    0.9533    2.6193    1.2471 H   0  0  0  0  0  0  0  0  0  0  0  0
   -2.7000    0.2597   -2.5796 H   0  0  0  0  0  0  0  0  0  0  0  0
   -3.0414    1.7769   -1.7338 H   0  0  0  0  0  0  0  0  0  0  0  0
    1.7740    0.9693   -0.9665 H   0  0  0  0  0  0  0  0  0  0  0  0
   -4.1987   -1.3212   -1.5240 H   0  0  0  0  0  0  0  0  0  0  0  0
   -4.6227   -1.1996    0.1901 H   0  0  0  0  0  0  0  0  0  0  0  0
   -3.1647   -0.7649    3.6635 H   0  0  0  0  0  0  0  0  0  0  0  0
    2.3732   -2.1486    0.7125 H   0  0  0  0  0  0  0  0  0  0  0  0
    3.2624   -4.4766   -0.3939 H   0  0  0  0  0  0  0  0  0  0  0  0
    5.3818   -3.7091   -1.9936 H   0  0  0  0  0  0  0  0  0  0  0  0
   -8.3768    0.7739   -1.6790 H   0  0  0  0  0  0  0  0  0  0  0  0
   -7.0732    1.8979   -1.4857 H   0  0  0  0  0  0  0  0  0  0  0  0
    5.5627    4.0970   -0.8850 H   0  0  0  0  0  0  0  0  0  0  0  0
    5.5726    2.9490   -2.2426 H   0  0  0  0  0  0  0  0  0  0  0  0
    6.6999    2.7304   -0.8632 H   0  0  0  0  0  0  0  0  0  0  0  0
  1 14  1  0  0  0  0
  1 19  1  0  0  0  0
  2 16  2  0  0  0  0
  3 20  1  0  0  0  0
  3 25  1  0  0  0  0
  4 21  1  0  0  0  0
  4 37  1  0  0  0  0
  5 21  2  0  0  0  0
  6 22  2  0  0  0  0
  7 24  1  0  0  0  0
  7 28  1  0  0  0  0
  8 12  1  0  0  0  0
  8 29  1  0  0  0  0
  9 25  2  0  0  0  0
 10 14  1  0  0  0  0
 10 16  1  0  0  0  0
 10 17  1  0  0  0  0
 11 15  1  0  0  0  0
 11 22  1  0  0  0  0
 11 34  1  0  0  0  0
 12 23  2  0  0  0  0
 13 25  1  0  0  0  0
 13 41  1  0  0  0  0
 13 42  1  0  0  0  0
 14 15  1  0  0  0  0
 14 30  1  0  0  0  0
 15 16  1  0  0  0  0
 15 31  1  0  0  0  0
 17 18  2  0  0  0  0
 17 21  1  0  0  0  0
 18 19  1  0  0  0  0
 18 20  1  0  0  0  0
 19 32  1  0  0  0  0
 19 33  1  0  0  0  0
 20 35  1  0  0  0  0
 20 36  1  0  0  0  0
 22 23  1  0  0  0  0
 23 24  1  0  0  0  0
 24 26  2  0  0  0  0
 26 27  1  0  0  0  0
 26 38  1  0  0  0  0
 27 28  2  0  0  0  0
 27 39  1  0  0  0  0
 28 40  1  0  0  0  0
 29 43  1  0  0  0  0
 29 44  1  0  0  0  0
 29 45  1  0  0  0  0
M  END
> <DATABASE_ID>
DB01112

> <DATABASE_NAME>
drugbank

> <ORIGINAL_SOURCE>
PUBCHEM

> <ORIGINAL_SOURCE_URL>
https://pubchem.ncbi.nlm.nih.gov/rest/pug/compound/inchikey/JFPVXVDWJQMJEE-IZRZKJBUSA-N/SDF?record_type=3d

> <SMILES>
[H][C@]12SCC(COC(N)=O)=C(N1C(=O)[C@H]2NC(=O)C(=N/OC)\C1=CC=CO1)C(O)=O

> <INCHI_IDENTIFIER>
InChI=1S/C16H16N4O8S/c1-26-19-9(8-3-2-4-27-8)12(21)18-10-13(22)20-11(15(23)24)7(5-28-16(17)25)6-29-14(10)20/h2-4,10,14H,5-6H2,1H3,(H2,17,25)(H,18,21)(H,23,24)/b19-9-/t10-,14-/m1/s1

> <INCHI_KEY>
JFPVXVDWJQMJEE-IZRZKJBUSA-N

> <FORMULA>
C16H16N4O8S

> <MOLECULAR_WEIGHT>
424.385

> <EXACT_MASS>
424.068884198

> <JCHEM_ACCEPTOR_COUNT>
7

> <JCHEM_AVERAGE_POLARIZABILITY>
38.749728909236225

> <JCHEM_BIOAVAILABILITY>
1

> <JCHEM_DONOR_COUNT>
3

> <JCHEM_FORMAL_CHARGE>
0

> <JCHEM_GHOSE_FILTER>
0

> <JCHEM_IUPAC>
(6R,7R)-3-[(carbamoyloxy)methyl]-7-[(2Z)-2-(furan-2-yl)-2-(methoxyimino)acetamido]-8-oxo-5-thia-1-azabicyclo[4.2.0]oct-2-ene-2-carboxylic acid

> <ALOGPS_LOGP>
-0.24

> <JCHEM_LOGP>
-0.9029734729999994

> <ALOGPS_LOGS>
-3.17

> <JCHEM_MDDR_LIKE_RULE>
1

> <JCHEM_NUMBER_OF_RINGS>
3

> <JCHEM_PHYSIOLOGICAL_CHARGE>
-1

> <JCHEM_PKA>
10.97507618266688

> <JCHEM_PKA_STRONGEST_ACIDIC>
3.149449980213596

> <JCHEM_PKA_STRONGEST_BASIC>
-1.149047285054373

> <JCHEM_POLAR_SURFACE_AREA>
173.76

> <JCHEM_REFRACTIVITY>
97.16580000000002

> <JCHEM_ROTATABLE_BOND_COUNT>
8

> <JCHEM_RULE_OF_FIVE>
1

> <ALOGPS_SOLUBILITY>
2.84e-01 g/l

> <JCHEM_TRADITIONAL_IUPAC>
sharox

> <JCHEM_VEBER_RULE>
0

$$$$
6956357
  -OEChem-10051719303D

 46 49  0     1  0  0  0  0  0999 V2000
   -1.7004    2.9139    0.1458 F   0  0  0  0  0  0  0  0  0  0  0  0
   -1.0055   -1.7559   -0.1689 O   0  0  0  0  0  0  0  0  0  0  0  0
    3.3285    2.4204    0.0187 O   0  0  0  0  0  0  0  0  0  0  0  0
    5.7284    1.3740   -0.0263 O   0  5  0  0  0  0  0  0  0  0  0  0
    5.8849   -0.9074   -0.0911 O   0  0  0  0  0  0  0  0  0  0  0  0
   -5.5561    0.1088   -0.0646 N   0  3  0  0  0  0  0  0  0  0  0  0
   -2.7267    0.3579    0.0089 N   0  0  0  0  0  0  0  0  0  0  0  0
    1.8409   -1.3682   -0.1046 N   0  0  0  0  0  0  0  0  0  0  0  0
   -4.8228    0.0134    1.2486 C   0  0  0  0  0  0  0  0  0  0  0  0
   -4.7195   -0.4449   -1.1900 C   0  0  0  0  0  0  0  0  0  0  0  0
   -3.5211    0.7997    1.1594 C   0  0  0  0  0  0  0  0  0  0  0  0
   -3.4209    0.3444   -1.2855 C   0  0  0  0  0  0  0  0  0  0  0  0
   -1.3435    0.5719    0.0007 C   0  0  0  0  0  0  0  0  0  0  0  0
   -0.4541   -0.5004   -0.0889 C   0  0  0  0  0  0  0  0  0  0  0  0
    0.9330   -0.2905   -0.0717 C   0  0  0  0  0  0  0  0  0  0  0  0
    1.2537   -2.7092   -0.0391 C   0  0  2  0  0  0  0  0  0  0  0  0
   -6.9091   -0.5421    0.0003 C   0  0  0  0  0  0  0  0  0  0  0  0
   -0.1013   -2.7017   -0.7485 C   0  0  0  0  0  0  0  0  0  0  0  0
    1.4074    1.0341   -0.0130 C   0  0  0  0  0  0  0  0  0  0  0  0
   -0.8552    1.8756    0.0706 C   0  0  0  0  0  0  0  0  0  0  0  0
    0.5190    2.1122    0.0569 C   0  0  0  0  0  0  0  0  0  0  0  0
    3.1982   -1.1187   -0.0974 C   0  0  0  0  0  0  0  0  0  0  0  0
    1.1377   -3.1613    1.4190 C   0  0  0  0  0  0  0  0  0  0  0  0
    2.8736    1.2843   -0.0167 C   0  0  0  0  0  0  0  0  0  0  0  0
    3.7617    0.0931   -0.0629 C   0  0  0  0  0  0  0  0  0  0  0  0
    5.2691    0.1965   -0.0599 C   0  0  0  0  0  0  0  0  0  0  0  0
   -5.7191    1.1064   -0.2590 H   0  0  0  0  0  0  0  0  0  0  0  0
   -4.6426   -1.0489    1.4500 H   0  0  0  0  0  0  0  0  0  0  0  0
   -5.4737    0.4290    2.0248 H   0  0  0  0  0  0  0  0  0  0  0  0
   -5.2992   -0.3498   -2.1138 H   0  0  0  0  0  0  0  0  0  0  0  0
   -4.5374   -1.5045   -0.9768 H   0  0  0  0  0  0  0  0  0  0  0  0
   -3.7396    1.8712    1.0735 H   0  0  0  0  0  0  0  0  0  0  0  0
   -2.9596    0.6508    2.0899 H   0  0  0  0  0  0  0  0  0  0  0  0
   -2.7916   -0.1160   -2.0570 H   0  0  0  0  0  0  0  0  0  0  0  0
   -3.6234    1.3754   -1.6020 H   0  0  0  0  0  0  0  0  0  0  0  0
    1.9029   -3.4205   -0.5661 H   0  0  0  0  0  0  0  0  0  0  0  0
   -7.4057   -0.3869   -0.9611 H   0  0  0  0  0  0  0  0  0  0  0  0
   -6.7758   -1.6076    0.2057 H   0  0  0  0  0  0  0  0  0  0  0  0
   -7.4800   -0.0574    0.7965 H   0  0  0  0  0  0  0  0  0  0  0  0
    0.0106   -2.4749   -1.8173 H   0  0  0  0  0  0  0  0  0  0  0  0
   -0.5712   -3.6889   -0.6784 H   0  0  0  0  0  0  0  0  0  0  0  0
    0.8765    3.1367    0.1073 H   0  0  0  0  0  0  0  0  0  0  0  0
    3.7733   -2.0377   -0.1192 H   0  0  0  0  0  0  0  0  0  0  0  0
    0.5178   -2.4822    2.0139 H   0  0  0  0  0  0  0  0  0  0  0  0
    0.6973   -4.1620    1.4787 H   0  0  0  0  0  0  0  0  0  0  0  0
    2.1251   -3.2007    1.8922 H   0  0  0  0  0  0  0  0  0  0  0  0
  1 20  1  0  0  0  0
  2 14  1  0  0  0  0
  2 18  1  0  0  0  0
  3 24  2  0  0  0  0
  4 26  1  0  0  0  0
  5 26  2  0  0  0  0
  6  9  1  0  0  0  0
  6 10  1  0  0  0  0
  6 17  1  0  0  0  0
  6 27  1  0  0  0  0
  7 11  1  0  0  0  0
  7 12  1  0  0  0  0
  7 13  1  0  0  0  0
  8 15  1  0  0  0  0
  8 16  1  0  0  0  0
  8 22  1  0  0  0  0
  9 11  1  0  0  0  0
  9 28  1  0  0  0  0
  9 29  1  0  0  0  0
 10 12  1  0  0  0  0
 10 30  1  0  0  0  0
 10 31  1  0  0  0  0
 11 32  1  0  0  0  0
 11 33  1  0  0  0  0
 12 34  1  0  0  0  0
 12 35  1  0  0  0  0
 13 14  1  0  0  0  0
 13 20  2  0  0  0  0
 14 15  2  0  0  0  0
 15 19  1  0  0  0  0
 16 18  1  0  0  0  0
 16 23  1  0  0  0  0
 16 36  1  0  0  0  0
 17 37  1  0  0  0  0
 17 38  1  0  0  0  0
 17 39  1  0  0  0  0
 18 40  1  0  0  0  0
 18 41  1  0  0  0  0
 19 21  2  0  0  0  0
 19 24  1  0  0  0  0
 20 21  1  0  0  0  0
 21 42  1  0  0  0  0
 22 25  2  0  0  0  0
 22 43  1  0  0  0  0
 23 44  1  0  0  0  0
 23 45  1  0  0  0  0
 23 46  1  0  0  0  0
 24 25  1  0  0  0  0
 25 26  1  0  0  0  0
M  CHG  2   4  -1   6   1
M  END
> <DATABASE_ID>
DB01137

> <DATABASE_NAME>
drugbank

> <ORIGINAL_SOURCE>
PUBCHEM

> <ORIGINAL_SOURCE_URL>
https://pubchem.ncbi.nlm.nih.gov/rest/pug/compound/inchikey/GSDSWSVVBLHKDQ-JTQLQIEISA-N/SDF?record_type=3d

> <SMILES>
C[C@H]1COC2=C3N1C=C(C(O)=O)C(=O)C3=CC(F)=C2N1CCN(C)CC1

> <INCHI_IDENTIFIER>
InChI=1S/C18H20FN3O4/c1-10-9-26-17-14-11(16(23)12(18(24)25)8-22(10)14)7-13(19)15(17)21-5-3-20(2)4-6-21/h7-8,10H,3-6,9H2,1-2H3,(H,24,25)/t10-/m0/s1

> <INCHI_KEY>
GSDSWSVVBLHKDQ-JTQLQIEISA-N

> <FORMULA>
C18H20FN3O4

> <MOLECULAR_WEIGHT>
361.3675

> <EXACT_MASS>
361.143784348

> <JCHEM_ACCEPTOR_COUNT>
7

> <JCHEM_AVERAGE_POLARIZABILITY>
36.69213757881419

> <JCHEM_BIOAVAILABILITY>
1

> <JCHEM_DONOR_COUNT>
1

> <JCHEM_FORMAL_CHARGE>
0

> <JCHEM_GHOSE_FILTER>
1

> <JCHEM_IUPAC>
(2S)-7-fluoro-2-methyl-6-(4-methylpiperazin-1-yl)-10-oxo-4-oxa-1-azatricyclo[7.3.1.0⁵,¹³]trideca-5(13),6,8,11-tetraene-11-carboxylic acid

> <ALOGPS_LOGP>
-0.02

> <JCHEM_LOGP>
0.6542797531974264

> <ALOGPS_LOGS>
-2.40

> <JCHEM_MDDR_LIKE_RULE>
0

> <JCHEM_NUMBER_OF_RINGS>
4

> <JCHEM_PHYSIOLOGICAL_CHARGE>
-1

> <JCHEM_PKA_STRONGEST_ACIDIC>
5.447057267648649

> <JCHEM_PKA_STRONGEST_BASIC>
6.201449203748399

> <JCHEM_POLAR_SURFACE_AREA>
73.32

> <JCHEM_REFRACTIVITY>
94.93590000000002

> <JCHEM_ROTATABLE_BOND_COUNT>
2

> <JCHEM_RULE_OF_FIVE>
1

> <ALOGPS_SOLUBILITY>
1.44e+00 g/l

> <JCHEM_TRADITIONAL_IUPAC>
levofloxacin

> <JCHEM_VEBER_RULE>
0

$$$$
9571107
  -OEChem-10051719303D

 48 51  0     1  0  0  0  0  0999 V2000
    1.3953   -2.6702   -0.1828 F   0  0  0  0  0  0  0  0  0  0  0  0
   -3.6642   -2.6129   -0.3086 O   0  0  0  0  0  0  0  0  0  0  0  0
    5.5044   -2.0454   -0.1122 O   0  0  0  0  0  0  0  0  0  0  0  0
   -6.0418   -1.7891    0.4583 O   0  0  0  0  0  0  0  0  0  0  0  0
   -6.5511    0.2668   -0.4043 O   0  0  0  0  0  0  0  0  0  0  0  0
   -2.4988    1.2423    0.2437 N   0  0  0  0  0  0  0  0  0  0  0  0
    2.0901   -0.0623    0.1886 N   0  0  3  0  0  0  0  0  0  0  0  0
   -0.1700    0.5841    0.2186 N   0  0  0  0  0  0  0  0  0  0  0  0
    5.5850   -0.6610    0.0883 N   0  0  0  0  0  0  0  0  0  0  0  0
    4.5628    3.5699   -0.1206 N   0  0  0  0  0  0  0  0  0  0  0  0
   -2.1258    2.6509    0.4807 C   0  0  0  0  0  0  0  0  0  0  0  0
   -2.6062    3.7351   -0.4280 C   0  0  0  0  0  0  0  0  0  0  0  0
   -1.1560    3.3499   -0.4157 C   0  0  0  0  0  0  0  0  0  0  0  0
   -1.4838    0.2461    0.1385 C   0  0  0  0  0  0  0  0  0  0  0  0
    4.0825    1.2523    0.4535 C   0  0  1  0  0  0  0  0  0  0  0  0
    2.5756    1.3181    0.1692 C   0  0  0  0  0  0  0  0  0  0  0  0
    3.1580   -1.0447    0.0823 C   0  0  0  0  0  0  0  0  0  0  0  0
   -3.8305    0.8879    0.1968 C   0  0  0  0  0  0  0  0  0  0  0  0
    4.3864   -0.1926    0.1814 C   0  0  0  0  0  0  0  0  0  0  0  0
    0.7512   -0.4004    0.1085 C   0  0  0  0  0  0  0  0  0  0  0  0
   -1.8718   -1.0904   -0.0507 C   0  0  0  0  0  0  0  0  0  0  0  0
    4.8876    2.2048   -0.4115 C   0  0  0  0  0  0  0  0  0  0  0  0
   -4.2966   -0.3549    0.0217 C   0  0  0  0  0  0  0  0  0  0  0  0
   -3.3094   -1.4546   -0.1294 C   0  0  0  0  0  0  0  0  0  0  0  0
    0.4432   -1.7343   -0.0806 C   0  0  0  0  0  0  0  0  0  0  0  0
   -0.8968   -2.0834   -0.1611 C   0  0  0  0  0  0  0  0  0  0  0  0
   -5.7454   -0.5584   -0.0109 C   0  0  0  0  0  0  0  0  0  0  0  0
    6.8261   -2.5538   -0.2137 C   0  0  0  0  0  0  0  0  0  0  0  0
   -2.0714    2.8822    1.5398 H   0  0  0  0  0  0  0  0  0  0  0  0
   -2.8800    4.6836    0.0175 H   0  0  0  0  0  0  0  0  0  0  0  0
   -3.1843    3.4700   -1.3048 H   0  0  0  0  0  0  0  0  0  0  0  0
   -0.7773    2.8450   -1.2959 H   0  0  0  0  0  0  0  0  0  0  0  0
   -0.4541    4.0382    0.0392 H   0  0  0  0  0  0  0  0  0  0  0  0
    4.2723    1.4272    1.5204 H   0  0  0  0  0  0  0  0  0  0  0  0
    2.0760    1.9283    0.9308 H   0  0  0  0  0  0  0  0  0  0  0  0
    2.3639    1.7570   -0.8134 H   0  0  0  0  0  0  0  0  0  0  0  0
    3.1632   -1.5396   -0.8950 H   0  0  0  0  0  0  0  0  0  0  0  0
    3.1502   -1.7517    0.9184 H   0  0  0  0  0  0  0  0  0  0  0  0
   -4.5016    1.7319    0.3240 H   0  0  0  0  0  0  0  0  0  0  0  0
    4.7203    2.0004   -1.4757 H   0  0  0  0  0  0  0  0  0  0  0  0
    5.9592    2.0513   -0.2398 H   0  0  0  0  0  0  0  0  0  0  0  0
   -1.1635   -3.1260   -0.3075 H   0  0  0  0  0  0  0  0  0  0  0  0
    4.6927    3.7606    0.8721 H   0  0  0  0  0  0  0  0  0  0  0  0
    3.5806    3.7560   -0.3166 H   0  0  0  0  0  0  0  0  0  0  0  0
   -7.0072   -1.9633    0.4520 H   0  0  0  0  0  0  0  0  0  0  0  0
    7.3800   -2.3608    0.7103 H   0  0  0  0  0  0  0  0  0  0  0  0
    7.3435   -2.1011   -1.0653 H   0  0  0  0  0  0  0  0  0  0  0  0
    6.7704   -3.6341   -0.3706 H   0  0  0  0  0  0  0  0  0  0  0  0
  1 25  1  0  0  0  0
  2 24  2  0  0  0  0
  3  9  1  0  0  0  0
  3 28  1  0  0  0  0
  4 27  1  0  0  0  0
  4 45  1  0  0  0  0
  5 27  2  0  0  0  0
  6 11  1  0  0  0  0
  6 14  1  0  0  0  0
  6 18  1  0  0  0  0
  7 16  1  0  0  0  0
  7 17  1  0  0  0  0
  7 20  1  0  0  0  0
  8 14  2  0  0  0  0
  8 20  1  0  0  0  0
  9 19  2  0  0  0  0
 10 22  1  0  0  0  0
 10 43  1  0  0  0  0
 10 44  1  0  0  0  0
 11 12  1  0  0  0  0
 11 13  1  0  0  0  0
 11 29  1  0  0  0  0
 12 13  1  0  0  0  0
 12 30  1  0  0  0  0
 12 31  1  0  0  0  0
 13 32  1  0  0  0  0
 13 33  1  0  0  0  0
 14 21  1  0  0  0  0
 15 16  1  0  0  0  0
 15 19  1  0  0  0  0
 15 22  1  0  0  0  0
 15 34  1  0  0  0  0
 16 35  1  0  0  0  0
 16 36  1  0  0  0  0
 17 19  1  0  0  0  0
 17 37  1  0  0  0  0
 17 38  1  0  0  0  0
 18 23  2  0  0  0  0
 18 39  1  0  0  0  0
 20 25  2  0  0  0  0
 21 24  1  0  0  0  0
 21 26  2  0  0  0  0
 22 40  1  0  0  0  0
 22 41  1  0  0  0  0
 23 24  1  0  0  0  0
 23 27  1  0  0  0  0
 25 26  1  0  0  0  0
 26 42  1  0  0  0  0
 28 46  1  0  0  0  0
 28 47  1  0  0  0  0
 28 48  1  0  0  0  0
M  END
> <DATABASE_ID>
DB01155

> <DATABASE_NAME>
drugbank

> <ORIGINAL_SOURCE>
PUBCHEM

> <ORIGINAL_SOURCE_URL>
https://pubchem.ncbi.nlm.nih.gov/rest/pug/compound/inchikey/ZRCVYEYHRGVLOC-HYARGMPZSA-N/SDF?record_type=3d

> <SMILES>
CO\N=C1/CN(CC1CN)C1=NC2=C(C=C1F)C(=O)C(=CN2C1CC1)C(O)=O

> <INCHI_IDENTIFIER>
InChI=1S/C18H20FN5O4/c1-28-22-14-8-23(6-9(14)5-20)17-13(19)4-11-15(25)12(18(26)27)7-24(10-2-3-10)16(11)21-17/h4,7,9-10H,2-3,5-6,8,20H2,1H3,(H,26,27)/b22-14+

> <INCHI_KEY>
ZRCVYEYHRGVLOC-HYARGMPZSA-N

> <FORMULA>
C18H20FN5O4

> <MOLECULAR_WEIGHT>
389.3809

> <EXACT_MASS>
389.149932358

> <JCHEM_ACCEPTOR_COUNT>
9

> <JCHEM_AVERAGE_POLARIZABILITY>
39.295747882714736

> <JCHEM_BIOAVAILABILITY>
1

> <JCHEM_DONOR_COUNT>
2

> <JCHEM_FORMAL_CHARGE>
0

> <JCHEM_GHOSE_FILTER>
0

> <JCHEM_IUPAC>
7-[(4Z)-3-(aminomethyl)-4-(methoxyimino)pyrrolidin-1-yl]-1-cyclopropyl-6-fluoro-4-oxo-1,4-dihydro-1,8-naphthyridine-3-carboxylic acid

> <ALOGPS_LOGP>
-0.82

> <JCHEM_LOGP>
-0.9184243869137297

> <ALOGPS_LOGS>
-3.27

> <JCHEM_MDDR_LIKE_RULE>
0

> <JCHEM_NUMBER_OF_RINGS>
4

> <JCHEM_PHYSIOLOGICAL_CHARGE>
0

> <JCHEM_PKA_STRONGEST_ACIDIC>
5.5331782535872795

> <JCHEM_PKA_STRONGEST_BASIC>
9.534415369849178

> <JCHEM_POLAR_SURFACE_AREA>
121.35000000000001

> <JCHEM_REFRACTIVITY>
99.74079999999998

> <JCHEM_ROTATABLE_BOND_COUNT>
5

> <JCHEM_RULE_OF_FIVE>
1

> <ALOGPS_SOLUBILITY>
2.10e-01 g/l

> <JCHEM_TRADITIONAL_IUPAC>
gemifloxacin

> <JCHEM_VEBER_RULE>
0

$$$$
6032
  -OEChem-10051719313D

 69 71  0     1  0  0  0  0  0999 V2000
    2.6158   -0.8606    0.3488 O   0  0  0  0  0  0  0  0  0  0  0  0
   -2.1404   -0.3285    0.6532 O   0  0  0  0  0  0  0  0  0  0  0  0
    0.2751    0.6181   -0.5143 O   0  0  0  0  0  0  0  0  0  0  0  0
    3.2182    0.6506   -1.3734 O   0  0  0  0  0  0  0  0  0  0  0  0
   -3.6284    0.0878   -1.1448 O   0  0  0  0  0  0  0  0  0  0  0  0
    5.1483   -1.9865    0.2597 O   0  0  0  0  0  0  0  0  0  0  0  0
   -1.9784    2.4268    1.1601 O   0  0  0  0  0  0  0  0  0  0  0  0
    5.0873    2.7920    0.9699 O   0  0  0  0  0  0  0  0  0  0  0  0
   -4.7726    3.1470    1.3816 O   0  0  0  0  0  0  0  0  0  0  0  0
   -6.5056    0.8850    1.0174 O   0  0  0  0  0  0  0  0  0  0  0  0
    1.7377    2.9213   -1.6756 O   0  0  0  0  0  0  0  0  0  0  0  0
    2.3350   -3.7306    0.1661 N   0  0  0  0  0  0  0  0  0  0  0  0
   -2.5087   -3.2045    0.5095 N   0  0  0  0  0  0  0  0  0  0  0  0
    6.7496    0.4162    0.8898 N   0  0  0  0  0  0  0  0  0  0  0  0
   -5.3156   -2.0059   -1.9602 N   0  0  0  0  0  0  0  0  0  0  0  0
    1.3893   -1.4734   -0.0582 C   0  0  2  0  0  0  0  0  0  0  0  0
   -1.1390   -1.2016    0.1224 C   0  0  1  0  0  0  0  0  0  0  0  0
    0.2307   -0.5435    0.3201 C   0  0  2  0  0  0  0  0  0  0  0  0
    1.2777   -2.8343    0.6420 C   0  0  1  0  0  0  0  0  0  0  0  0
   -1.2282   -2.5646    0.8212 C   0  0  2  0  0  0  0  0  0  0  0  0
   -0.0847   -3.4853    0.3864 C   0  0  0  0  0  0  0  0  0  0  0  0
    3.4677   -0.6189   -0.7695 C   0  0  1  0  0  0  0  0  0  0  0  0
   -2.5788    0.6099   -0.3275 C   0  0  1  0  0  0  0  0  0  0  0  0
    4.9362   -0.7186   -0.3510 C   0  0  1  0  0  0  0  0  0  0  0  0
    5.3099    0.4224    0.6045 C   0  0  2  0  0  0  0  0  0  0  0  0
   -2.9935    1.9489    0.2847 C   0  0  1  0  0  0  0  0  0  0  0  0
    4.9158    1.7742   -0.0134 C   0  0  1  0  0  0  0  0  0  0  0  0
   -4.3101    1.8355    1.0505 C   0  0  2  0  0  0  0  0  0  0  0  0
    3.4556    1.7549   -0.4934 C   0  0  1  0  0  0  0  0  0  0  0  0
   -5.3760    1.1539    0.1901 C   0  0  1  0  0  0  0  0  0  0  0  0
   -4.8439   -0.1477   -0.4248 C   0  0  1  0  0  0  0  0  0  0  0  0
   -5.8337   -0.7622   -1.4107 C   0  0  0  0  0  0  0  0  0  0  0  0
    3.0876    3.0221   -1.2611 C   0  0  0  0  0  0  0  0  0  0  0  0
    1.3538   -1.6240   -1.1471 H   0  0  0  0  0  0  0  0  0  0  0  0
   -1.3201   -1.3556   -0.9526 H   0  0  0  0  0  0  0  0  0  0  0  0
    0.3417   -0.1823    1.3494 H   0  0  0  0  0  0  0  0  0  0  0  0
    1.4201   -2.6997    1.7221 H   0  0  0  0  0  0  0  0  0  0  0  0
   -1.1879   -2.4172    1.9080 H   0  0  0  0  0  0  0  0  0  0  0  0
   -0.1485   -4.4366    0.9317 H   0  0  0  0  0  0  0  0  0  0  0  0
   -0.1869   -3.7272   -0.6812 H   0  0  0  0  0  0  0  0  0  0  0  0
    3.3153   -1.3869   -1.5384 H   0  0  0  0  0  0  0  0  0  0  0  0
   -1.7904    0.8448   -1.0400 H   0  0  0  0  0  0  0  0  0  0  0  0
    5.5718   -0.6552   -1.2445 H   0  0  0  0  0  0  0  0  0  0  0  0
    4.8001    0.2832    1.5666 H   0  0  0  0  0  0  0  0  0  0  0  0
   -3.1163    2.6930   -0.5129 H   0  0  0  0  0  0  0  0  0  0  0  0
    5.5774    2.0009   -0.8593 H   0  0  0  0  0  0  0  0  0  0  0  0
   -4.1671    1.3097    2.0017 H   0  0  0  0  0  0  0  0  0  0  0  0
    2.7715    1.6753    0.3615 H   0  0  0  0  0  0  0  0  0  0  0  0
    2.2653   -4.6273    0.6457 H   0  0  0  0  0  0  0  0  0  0  0  0
    3.2428   -3.3435    0.4179 H   0  0  0  0  0  0  0  0  0  0  0  0
   -2.5778   -4.0923    1.0053 H   0  0  0  0  0  0  0  0  0  0  0  0
   -3.2715   -2.6239    0.8541 H   0  0  0  0  0  0  0  0  0  0  0  0
   -5.7058    1.8398   -0.5996 H   0  0  0  0  0  0  0  0  0  0  0  0
   -4.6571   -0.8800    0.3715 H   0  0  0  0  0  0  0  0  0  0  0  0
    0.3312    0.3242   -1.4396 H   0  0  0  0  0  0  0  0  0  0  0  0
   -6.7922   -0.9615   -0.9207 H   0  0  0  0  0  0  0  0  0  0  0  0
   -6.0167   -0.0699   -2.2408 H   0  0  0  0  0  0  0  0  0  0  0  0
    3.7055    3.1266   -2.1591 H   0  0  0  0  0  0  0  0  0  0  0  0
    3.2013    3.9142   -0.6377 H   0  0  0  0  0  0  0  0  0  0  0  0
    7.0043   -0.4653    1.3332 H   0  0  0  0  0  0  0  0  0  0  0  0
    6.9669    1.1522    1.5605 H   0  0  0  0  0  0  0  0  0  0  0  0
    5.0386   -2.6621   -0.4311 H   0  0  0  0  0  0  0  0  0  0  0  0
   -1.1508    2.4726    0.6516 H   0  0  0  0  0  0  0  0  0  0  0  0
    4.4850    2.5999    1.7087 H   0  0  0  0  0  0  0  0  0  0  0  0
   -4.8979    3.6423    0.5542 H   0  0  0  0  0  0  0  0  0  0  0  0
   -6.2322    0.2516    1.7027 H   0  0  0  0  0  0  0  0  0  0  0  0
   -5.9567   -2.3574   -2.6700 H   0  0  0  0  0  0  0  0  0  0  0  0
   -4.4306   -1.8300   -2.4342 H   0  0  0  0  0  0  0  0  0  0  0  0
    1.5254    3.7354   -2.1631 H   0  0  0  0  0  0  0  0  0  0  0  0
  1 16  1  0  0  0  0
  1 22  1  0  0  0  0
  2 17  1  0  0  0  0
  2 23  1  0  0  0  0
  3 18  1  0  0  0  0
  3 55  1  0  0  0  0
  4 22  1  0  0  0  0
  4 29  1  0  0  0  0
  5 23  1  0  0  0  0
  5 31  1  0  0  0  0
  6 24  1  0  0  0  0
  6 62  1  0  0  0  0
  7 26  1  0  0  0  0
  7 63  1  0  0  0  0
  8 27  1  0  0  0  0
  8 64  1  0  0  0  0
  9 28  1  0  0  0  0
  9 65  1  0  0  0  0
 10 30  1  0  0  0  0
 10 66  1  0  0  0  0
 11 33  1  0  0  0  0
 11 69  1  0  0  0  0
 12 19  1  0  0  0  0
 12 49  1  0  0  0  0
 12 50  1  0  0  0  0
 13 20  1  0  0  0  0
 13 51  1  0  0  0  0
 13 52  1  0  0  0  0
 14 25  1  0  0  0  0
 14 60  1  0  0  0  0
 14 61  1  0  0  0  0
 15 32  1  0  0  0  0
 15 67  1  0  0  0  0
 15 68  1  0  0  0  0
 16 18  1  0  0  0  0
 16 19  1  0  0  0  0
 16 34  1  0  0  0  0
 17 18  1  0  0  0  0
 17 20  1  0  0  0  0
 17 35  1  0  0  0  0
 18 36  1  0  0  0  0
 19 21  1  0  0  0  0
 19 37  1  0  0  0  0
 20 21  1  0  0  0  0
 20 38  1  0  0  0  0
 21 39  1  0  0  0  0
 21 40  1  0  0  0  0
 22 24  1  0  0  0  0
 22 41  1  0  0  0  0
 23 26  1  0  0  0  0
 23 42  1  0  0  0  0
 24 25  1  0  0  0  0
 24 43  1  0  0  0  0
 25 27  1  0  0  0  0
 25 44  1  0  0  0  0
 26 28  1  0  0  0  0
 26 45  1  0  0  0  0
 27 29  1  0  0  0  0
 27 46  1  0  0  0  0
 28 30  1  0  0  0  0
 28 47  1  0  0  0  0
 29 33  1  0  0  0  0
 29 48  1  0  0  0  0
 30 31  1  0  0  0  0
 30 53  1  0  0  0  0
 31 32  1  0  0  0  0
 31 54  1  0  0  0  0
 32 56  1  0  0  0  0
 32 57  1  0  0  0  0
 33 58  1  0  0  0  0
 33 59  1  0  0  0  0
M  END
> <DATABASE_ID>
DB01172

> <DATABASE_NAME>
drugbank

> <ORIGINAL_SOURCE>
PUBCHEM

> <ORIGINAL_SOURCE_URL>
https://pubchem.ncbi.nlm.nih.gov/rest/pug/compound/inchikey/SBUJHOSQTJFQJX-NOAMYHISSA-N/SDF?record_type=3d

> <SMILES>
NC[C@H]1O[C@H](O[C@@H]2[C@@H](N)C[C@@H](N)[C@H](O[C@H]3O[C@H](CO)[C@@H](O)[C@H](N)[C@H]3O)[C@H]2O)[C@H](O)[C@@H](O)[C@@H]1O

> <INCHI_IDENTIFIER>
InChI=1S/C18H36N4O11/c19-2-6-10(25)12(27)13(28)18(30-6)33-16-5(21)1-4(20)15(14(16)29)32-17-11(26)8(22)9(24)7(3-23)31-17/h4-18,23-29H,1-3,19-22H2/t4-,5+,6-,7-,8+,9-,10-,11-,12+,13-,14-,15+,16-,17-,18-/m1/s1

> <INCHI_KEY>
SBUJHOSQTJFQJX-NOAMYHISSA-N

> <FORMULA>
C18H36N4O11

> <MOLECULAR_WEIGHT>
484.4986

> <EXACT_MASS>
484.238058014

> <JCHEM_ACCEPTOR_COUNT>
15

> <JCHEM_AVERAGE_POLARIZABILITY>
47.572622511495894

> <JCHEM_BIOAVAILABILITY>
0

> <JCHEM_DONOR_COUNT>
11

> <JCHEM_FORMAL_CHARGE>
0

> <JCHEM_GHOSE_FILTER>
0

> <JCHEM_IUPAC>
(2R,3S,4S,5R,6R)-2-(aminomethyl)-6-{[(1R,2R,3S,4R,6S)-4,6-diamino-3-{[(2S,3R,4S,5S,6R)-4-amino-3,5-dihydroxy-6-(hydroxymethyl)oxan-2-yl]oxy}-2-hydroxycyclohexyl]oxy}oxane-3,4,5-triol

> <ALOGPS_LOGP>
-3.10

> <JCHEM_LOGP>
-7.060913449000002

> <ALOGPS_LOGS>
-0.72

> <JCHEM_MDDR_LIKE_RULE>
1

> <JCHEM_NUMBER_OF_RINGS>
3

> <JCHEM_PHYSIOLOGICAL_CHARGE>
4

> <JCHEM_PKA>
12.74656480593374

> <JCHEM_PKA_STRONGEST_ACIDIC>
12.109839881761873

> <JCHEM_PKA_STRONGEST_BASIC>
9.749899394708958

> <JCHEM_POLAR_SURFACE_AREA>
282.60999999999996

> <JCHEM_REFRACTIVITY>
106.13449999999996

> <JCHEM_ROTATABLE_BOND_COUNT>
6

> <JCHEM_RULE_OF_FIVE>
0

> <ALOGPS_SOLUBILITY>
9.23e+01 g/l

> <JCHEM_TRADITIONAL_IUPAC>
kanamycin

> <JCHEM_VEBER_RULE>
0

$$$$

  Mrv1909 11041923332D          

 40 44  0  0  0  0            999 V2000
   -3.5106   -0.2061    0.0000 C   0  0  0  0  0  0  0  0  0  0  0  0
   -3.5106    0.6187    0.0000 C   0  0  0  0  0  0  0  0  0  0  0  0
   -0.6529   -0.2061    0.0000 C   0  0  1  0  0  0  0  0  0  0  0  0
   -0.6529    0.6187    0.0000 C   0  0  2  0  0  0  0  0  0  0  0  0
   -1.3673   -0.6187    0.0000 C   0  0  0  0  0  0  0  0  0  0  0  0
   -1.3673    1.0312    0.0000 C   0  0  0  0  0  0  0  0  0  0  0  0
   -2.0818   -0.2061    0.0000 C   0  0  1  0  0  0  0  0  0  0  0  0
   -2.0818    0.6187    0.0000 C   0  0  0  0  0  0  0  0  0  0  0  0
   -2.7962    1.0312    0.0000 C   0  0  0  0  0  0  0  0  0  0  0  0
   -2.7962   -0.6187    0.0000 C   0  0  2  0  0  0  0  0  0  0  0  0
    0.0615   -0.6187    0.0000 C   0  0  1  0  0  0  0  0  0  0  0  0
    0.0615    1.0312    0.0000 C   0  0  0  0  0  0  0  0  0  0  0  0
   -0.6529    1.4437    0.0000 O   0  0  0  0  0  0  0  0  0  0  0  0
    0.7759   -0.2061    0.0000 C   0  0  0  0  0  0  0  0  0  0  0  0
    0.0615   -1.4437    0.0000 N   0  0  0  0  0  0  0  0  0  0  0  0
   -1.3673    1.8562    0.0000 O   0  0  0  0  0  0  0  0  0  0  0  0
    0.7759    0.6187    0.0000 C   0  0  0  0  0  0  0  0  0  0  0  0
    0.0615    1.8562    0.0000 O   0  0  0  0  0  0  0  0  0  0  0  0
    1.4905   -0.6187    0.0000 O   0  0  0  0  0  0  0  0  0  0  0  0
    0.7759   -1.8562    0.0000 C   0  0  0  0  0  0  0  0  0  0  0  0
   -0.6529   -1.8562    0.0000 C   0  0  0  0  0  0  0  0  0  0  0  0
    1.4905    1.0312    0.0000 C   0  0  0  0  0  0  0  0  0  0  0  0
   -2.7962    1.8562    0.0000 O   0  0  0  0  0  0  0  0  0  0  0  0
    2.2048    0.6187    0.0000 N   0  0  0  0  0  0  0  0  0  0  0  0
    1.4905    1.8562    0.0000 O   0  0  0  0  0  0  0  0  0  0  0  0
   -4.2251   -0.6187    0.0000 C   0  0  0  0  0  0  0  0  0  0  0  0
   -4.2251    1.0312    0.0000 C   0  0  0  0  0  0  0  0  0  0  0  0
   -4.9396   -0.2061    0.0000 C   0  0  0  0  0  0  0  0  0  0  0  0
   -4.9396    0.6187    0.0000 C   0  0  0  0  0  0  0  0  0  0  0  0
   -4.2251    1.8562    0.0000 O   0  0  0  0  0  0  0  0  0  0  0  0
   -0.6529   -1.0312    0.0000 H   0  0  0  0  0  0  0  0  0  0  0  0
   -2.0818   -1.0312    0.0000 H   0  0  0  0  0  0  0  0  0  0  0  0
   -3.5106   -1.0312    0.0000 O   0  0  0  0  0  0  0  0  0  0  0  0
   -2.7962   -1.4437    0.0000 C   0  0  0  0  0  0  0  0  0  0  0  0
    2.9193    1.0312    0.0000 C   0  0  0  0  0  0  0  0  0  0  0  0
    3.6339    0.6186    0.0000 N   0  0  0  0  0  0  0  0  0  0  0  0
    4.3875    0.9542    0.0000 C   0  0  0  0  0  0  0  0  0  0  0  0
    3.7200   -0.2018    0.0000 C   0  0  0  0  0  0  0  0  0  0  0  0
    4.9396    0.3410    0.0000 C   0  0  0  0  0  0  0  0  0  0  0  0
    4.5272   -0.3733    0.0000 C   0  0  0  0  0  0  0  0  0  0  0  0
  1 26  2  0  0  0  0
  1  2  1  0  0  0  0
  2 27  2  0  0  0  0
  3 11  1  0  0  0  0
  3 31  1  1  0  0  0
  3  4  1  0  0  0  0
  4 12  1  0  0  0  0
  4 13  1  1  0  0  0
  3  5  1  0  0  0  0
  4  6  1  0  0  0  0
  6 16  1  0  0  0  0
  5  7  1  0  0  0  0
  7 32  1  1  0  0  0
  7  8  1  0  0  0  0
  6  8  2  0  0  0  0
  8  9  1  0  0  0  0
  9  2  1  0  0  0  0
  9 23  2  0  0  0  0
  7 10  1  0  0  0  0
 10  1  1  0  0  0  0
 10 34  1  1  0  0  0
 10 33  1  0  0  0  0
 11 14  1  0  0  0  0
 11 15  1  1  0  0  0
 12 17  1  0  0  0  0
 12 18  2  0  0  0  0
 14 19  1  0  0  0  0
 14 17  2  0  0  0  0
 15 20  1  0  0  0  0
 15 21  1  0  0  0  0
 17 22  1  0  0  0  0
 22 24  1  0  0  0  0
 22 25  2  0  0  0  0
 26 28  1  0  0  0  0
 27 29  1  0  0  0  0
 27 30  1  0  0  0  0
 28 29  2  0  0  0  0
 24 35  1  0  0  0  0
 37 36  1  0  0  0  0
 38 36  1  0  0  0  0
 39 37  1  0  0  0  0
 40 38  1  0  0  0  0
 40 39  1  0  0  0  0
 35 36  1  0  0  0  0
M  END
> <DATABASE_ID>
DB01301

> <DATABASE_NAME>
drugbank

> <SMILES>
[H][C@@]12C[C@@]3([H])C(C(=O)C4=C(O)C=CC=C4[C@@]3(C)O)=C(O)[C@]1(O)C(=O)C(C(=O)NCN1CCCC1)=C(O)[C@H]2N(C)C

> <INCHI_IDENTIFIER>
InChI=1S/C27H33N3O8/c1-26(37)13-7-6-8-16(31)17(13)21(32)18-14(26)11-15-20(29(2)3)22(33)19(24(35)27(15,38)23(18)34)25(36)28-12-30-9-4-5-10-30/h6-8,14-15,20,31,33-34,37-38H,4-5,9-12H2,1-3H3,(H,28,36)/t14-,15-,20-,26+,27-/m0/s1

> <INCHI_KEY>
HMEYVGGHISAPJR-IAHYZSEUSA-N

> <FORMULA>
C27H33N3O8

> <MOLECULAR_WEIGHT>
527.5662

> <EXACT_MASS>
527.226765047

> <JCHEM_ACCEPTOR_COUNT>
10

> <JCHEM_ATOM_COUNT>
71

> <JCHEM_AVERAGE_POLARIZABILITY>
54.37491780406887

> <JCHEM_BIOAVAILABILITY>
0

> <JCHEM_DONOR_COUNT>
6

> <JCHEM_FORMAL_CHARGE>
0

> <JCHEM_GHOSE_FILTER>
0

> <JCHEM_IUPAC>
(4S,4aS,5aS,6S,12aS)-4-(dimethylamino)-3,6,10,12,12a-pentahydroxy-6-methyl-1,11-dioxo-N-[(pyrrolidin-1-yl)methyl]-1,4,4a,5,5a,6,11,12a-octahydrotetracene-2-carboxamide

> <ALOGPS_LOGP>
-0.08

> <JCHEM_LOGP>
-3.038132154630802

> <ALOGPS_LOGS>
-2.47

> <JCHEM_MDDR_LIKE_RULE>
0

> <JCHEM_NUMBER_OF_RINGS>
5

> <JCHEM_PHYSIOLOGICAL_CHARGE>
0

> <JCHEM_PKA>
7.468956174144231

> <JCHEM_PKA_STRONGEST_ACIDIC>
3.254111422987745

> <JCHEM_PKA_STRONGEST_BASIC>
9.262811455182051

> <JCHEM_POLAR_SURFACE_AREA>
170.86999999999998

> <JCHEM_REFRACTIVITY>
139.45460000000003

> <JCHEM_ROTATABLE_BOND_COUNT>
4

> <JCHEM_RULE_OF_FIVE>
0

> <ALOGPS_SOLUBILITY>
1.81e+00 g/l

> <JCHEM_TRADITIONAL_IUPAC>
atovaquone

> <JCHEM_VEBER_RULE>
0

> <DRUGBANK_ID>
DB01301

> <DRUG_GROUPS>
approved

> <GENERIC_NAME>
Rolitetracycline

> <SYNONYMS>
N-(1-Pyrrolidinylmethyl)-tetracycline; N-(Pyrrolidinomethyl)tetracycline; Pyrrolidino-methyl-tetracycline; Rolitetraciclina; Rolitetracycline; Rolitetracyclinum

> <PRODUCTS>
Reverin 275mg

> <INTERNATIONAL_BRANDS>
Reverin; Synterin

$$$$
441397
  -OEChem-10051719383D

 59 61  0     1  0  0  0  0  0999 V2000
    1.5499    0.9036   -1.3263 S   0  0  0  0  0  0  0  0  0  0  0  0
   -0.3078    1.2354    2.6550 O   0  0  0  0  0  0  0  0  0  0  0  0
   -3.2653    0.5782   -0.4681 O   0  0  0  0  0  0  0  0  0  0  0  0
   -2.5402    2.7721   -0.5282 O   0  0  0  0  0  0  0  0  0  0  0  0
    4.4932    1.9503    0.5207 O   0  0  0  0  0  0  0  0  0  0  0  0
   -5.5177   -0.1757   -0.5563 O   0  0  0  0  0  0  0  0  0  0  0  0
   -6.3616   -1.9962    0.3555 O   0  0  0  0  0  0  0  0  0  0  0  0
   -4.7899   -0.7977    1.5408 O   0  0  0  0  0  0  0  0  0  0  0  0
   -0.1402    1.8697    0.3879 N   0  0  0  0  0  0  0  0  0  0  0  0
    2.6725    0.9305    1.5312 N   0  0  0  0  0  0  0  0  0  0  0  0
    6.1700    0.1140    1.7240 N   0  0  0  0  0  0  0  0  0  0  0  0
    1.1887    2.2282   -0.1165 C   0  0  1  0  0  0  0  0  0  0  0  0
   -0.2587    0.7343   -1.7389 C   0  0  0  0  0  0  0  0  0  0  0  0
   -0.9643    0.9625   -0.3849 C   0  0  2  0  0  0  0  0  0  0  0  0
    1.7145    2.0231    1.3108 C   0  0  1  0  0  0  0  0  0  0  0  0
    0.2603    1.6647    1.6765 C   0  0  0  0  0  0  0  0  0  0  0  0
   -0.5173   -0.6761   -2.2719 C   0  0  0  0  0  0  0  0  0  0  0  0
   -0.5964    1.7737   -2.8164 C   0  0  0  0  0  0  0  0  0  0  0  0
   -2.3289    1.5686   -0.4691 C   0  0  0  0  0  0  0  0  0  0  0  0
    4.0032    0.9884    1.1100 C   0  0  0  0  0  0  0  0  0  0  0  0
    4.7871   -0.2779    1.4366 C   0  0  1  0  0  0  0  0  0  0  0  0
   -4.6484    0.9765   -0.5438 C   0  0  2  0  0  0  0  0  0  0  0  0
    4.6945   -1.2780    0.3028 C   0  0  0  0  0  0  0  0  0  0  0  0
   -4.8780    1.7233   -1.8502 C   0  0  0  0  0  0  0  0  0  0  0  0
    3.6668   -2.2042    0.3028 C   0  0  0  0  0  0  0  0  0  0  0  0
    5.6399   -1.2425   -0.7065 C   0  0  0  0  0  0  0  0  0  0  0  0
    3.5817   -3.1254   -0.7413 C   0  0  0  0  0  0  0  0  0  0  0  0
    5.5548   -2.1636   -1.7505 C   0  0  0  0  0  0  0  0  0  0  0  0
   -5.4846   -0.9718    0.5488 C   0  0  0  0  0  0  0  0  0  0  0  0
    4.5257   -3.1051   -1.7677 C   0  0  0  0  0  0  0  0  0  0  0  0
   -6.4567   -2.9388    1.4285 C   0  0  0  0  0  0  0  0  0  0  0  0
   -5.4468   -4.0441    1.2048 C   0  0  0  0  0  0  0  0  0  0  0  0
    1.2348    3.2508   -0.5020 H   0  0  0  0  0  0  0  0  0  0  0  0
   -1.0278    0.0301    0.1931 H   0  0  0  0  0  0  0  0  0  0  0  0
    2.0455    2.9472    1.7998 H   0  0  0  0  0  0  0  0  0  0  0  0
   -1.5813   -0.8156   -2.4951 H   0  0  0  0  0  0  0  0  0  0  0  0
   -0.2329   -1.4458   -1.5449 H   0  0  0  0  0  0  0  0  0  0  0  0
    0.0388   -0.8669   -3.1971 H   0  0  0  0  0  0  0  0  0  0  0  0
   -1.6441    1.6892   -3.1273 H   0  0  0  0  0  0  0  0  0  0  0  0
    0.0126    1.6292   -3.7169 H   0  0  0  0  0  0  0  0  0  0  0  0
   -0.4394    2.8009   -2.4691 H   0  0  0  0  0  0  0  0  0  0  0  0
    2.3628    0.0866    2.0076 H   0  0  0  0  0  0  0  0  0  0  0  0
    4.3862   -0.7281    2.3535 H   0  0  0  0  0  0  0  0  0  0  0  0
   -4.9088    1.6066    0.3156 H   0  0  0  0  0  0  0  0  0  0  0  0
    6.1838    0.7545    2.5173 H   0  0  0  0  0  0  0  0  0  0  0  0
    6.7008   -0.7050    2.0198 H   0  0  0  0  0  0  0  0  0  0  0  0
   -4.4306    2.7188   -1.8698 H   0  0  0  0  0  0  0  0  0  0  0  0
   -4.4640    1.1591   -2.6940 H   0  0  0  0  0  0  0  0  0  0  0  0
   -5.9510    1.8428   -2.0376 H   0  0  0  0  0  0  0  0  0  0  0  0
    2.9264   -2.2279    1.0968 H   0  0  0  0  0  0  0  0  0  0  0  0
    6.4414   -0.5107   -0.7317 H   0  0  0  0  0  0  0  0  0  0  0  0
    2.7796   -3.8576   -0.7554 H   0  0  0  0  0  0  0  0  0  0  0  0
    6.2870   -2.1452   -2.5526 H   0  0  0  0  0  0  0  0  0  0  0  0
    4.4586   -3.8214   -2.5814 H   0  0  0  0  0  0  0  0  0  0  0  0
   -7.4702   -3.3523    1.4068 H   0  0  0  0  0  0  0  0  0  0  0  0
   -6.3234   -2.4610    2.4057 H   0  0  0  0  0  0  0  0  0  0  0  0
   -5.5333   -4.8115    1.9792 H   0  0  0  0  0  0  0  0  0  0  0  0
   -5.5968   -4.5126    0.2265 H   0  0  0  0  0  0  0  0  0  0  0  0
   -4.4251   -3.6509    1.2159 H   0  0  0  0  0  0  0  0  0  0  0  0
  1 12  1  0  0  0  0
  1 13  1  0  0  0  0
  2 16  2  0  0  0  0
  3 19  1  0  0  0  0
  3 22  1  0  0  0  0
  4 19  2  0  0  0  0
  5 20  2  0  0  0  0
  6 22  1  0  0  0  0
  6 29  1  0  0  0  0
  7 29  1  0  0  0  0
  7 31  1  0  0  0  0
  8 29  2  0  0  0  0
  9 12  1  0  0  0  0
  9 14  1  0  0  0  0
  9 16  1  0  0  0  0
 10 15  1  0  0  0  0
 10 20  1  0  0  0  0
 10 42  1  0  0  0  0
 11 21  1  0  0  0  0
 11 45  1  0  0  0  0
 11 46  1  0  0  0  0
 12 15  1  0  0  0  0
 12 33  1  0  0  0  0
 13 14  1  0  0  0  0
 13 17  1  0  0  0  0
 13 18  1  0  0  0  0
 14 19  1  0  0  0  0
 14 34  1  0  0  0  0
 15 16  1  0  0  0  0
 15 35  1  0  0  0  0
 17 36  1  0  0  0  0
 17 37  1  0  0  0  0
 17 38  1  0  0  0  0
 18 39  1  0  0  0  0
 18 40  1  0  0  0  0
 18 41  1  0  0  0  0
 20 21  1  0  0  0  0
 21 23  1  0  0  0  0
 21 43  1  0  0  0  0
 22 24  1  0  0  0  0
 22 44  1  0  0  0  0
 23 25  2  0  0  0  0
 23 26  1  0  0  0  0
 24 47  1  0  0  0  0
 24 48  1  0  0  0  0
 24 49  1  0  0  0  0
 25 27  1  0  0  0  0
 25 50  1  0  0  0  0
 26 28  2  0  0  0  0
 26 51  1  0  0  0  0
 27 30  2  0  0  0  0
 27 52  1  0  0  0  0
 28 30  1  0  0  0  0
 28 53  1  0  0  0  0
 30 54  1  0  0  0  0
 31 32  1  0  0  0  0
 31 55  1  0  0  0  0
 31 56  1  0  0  0  0
 32 57  1  0  0  0  0
 32 58  1  0  0  0  0
 32 59  1  0  0  0  0
M  END
> <DATABASE_ID>
DB01602

> <DATABASE_NAME>
drugbank

> <ORIGINAL_SOURCE>
PUBCHEM

> <ORIGINAL_SOURCE_URL>
https://pubchem.ncbi.nlm.nih.gov/rest/pug/compound/inchikey/PFOLLRNADZZWEX-FFGRCDKISA-N/SDF?record_type=3d

> <SMILES>
[H][C@]12SC(C)(C)[C@@H](N1C(=O)[C@H]2NC(=O)[C@H](N)C1=CC=CC=C1)C(=O)OC(C)OC(=O)OCC

> <INCHI_IDENTIFIER>
InChI=1S/C21H27N3O7S/c1-5-29-20(28)31-11(2)30-19(27)15-21(3,4)32-18-14(17(26)24(15)18)23-16(25)13(22)12-9-7-6-8-10-12/h6-11,13-15,18H,5,22H2,1-4H3,(H,23,25)/t11?,13-,14-,15+,18-/m1/s1

> <INCHI_KEY>
PFOLLRNADZZWEX-FFGRCDKISA-N

> <FORMULA>
C21H27N3O7S

> <MOLECULAR_WEIGHT>
465.52

> <EXACT_MASS>
465.156970923

> <JCHEM_ACCEPTOR_COUNT>
6

> <JCHEM_AVERAGE_POLARIZABILITY>
46.804522691634816

> <JCHEM_BIOAVAILABILITY>
1

> <JCHEM_DONOR_COUNT>
2

> <JCHEM_FORMAL_CHARGE>
0

> <JCHEM_GHOSE_FILTER>
1

> <JCHEM_IUPAC>
1-[(ethoxycarbonyl)oxy]ethyl (2S,5R,6R)-6-[(2R)-2-amino-2-phenylacetamido]-3,3-dimethyl-7-oxo-4-thia-1-azabicyclo[3.2.0]heptane-2-carboxylate

> <ALOGPS_LOGP>
1.17

> <JCHEM_LOGP>
1.471288066666666

> <ALOGPS_LOGS>
-3.58

> <JCHEM_MDDR_LIKE_RULE>
1

> <JCHEM_NUMBER_OF_RINGS>
3

> <JCHEM_PHYSIOLOGICAL_CHARGE>
1

> <JCHEM_PKA>
14.348872411368657

> <JCHEM_PKA_STRONGEST_ACIDIC>
11.72011839374805

> <JCHEM_PKA_STRONGEST_BASIC>
7.438310344205282

> <JCHEM_POLAR_SURFACE_AREA>
137.26

> <JCHEM_REFRACTIVITY>
113.76040000000003

> <JCHEM_ROTATABLE_BOND_COUNT>
10

> <JCHEM_RULE_OF_FIVE>
1

> <ALOGPS_SOLUBILITY>
1.23e-01 g/l

> <JCHEM_TRADITIONAL_IUPAC>
bacampicillin

> <JCHEM_VEBER_RULE>
0

$$$$
6087
  -OEChem-10051719383D

 46 48  0     1  0  0  0  0  0999 V2000
   -1.5677    1.5735    0.4355 S   0  0  0  0  0  0  0  0  0  0  0  0
   -1.7272   -2.6673   -0.7486 O   0  0  0  0  0  0  0  0  0  0  0  0
   -5.6450   -0.0358   -1.3787 O   0  0  0  0  0  0  0  0  0  0  0  0
   -5.1925   -1.4572    0.3449 O   0  0  0  0  0  0  0  0  0  0  0  0
    1.9625   -0.6125    2.0626 O   0  0  0  0  0  0  0  0  0  0  0  0
    2.2372    2.3150    0.4677 O   0  0  0  0  0  0  0  0  0  0  0  0
    3.4902   -2.2189   -0.4830 O   0  0  0  0  0  0  0  0  0  0  0  0
   -2.6222   -0.7957    0.3767 N   0  0  0  0  0  0  0  0  0  0  0  0
    0.5486   -0.6410    0.2271 N   0  0  0  0  0  0  0  0  0  0  0  0
   -1.7259   -0.0500    1.2652 C   0  0  1  0  0  0  0  0  0  0  0  0
   -3.2962    1.4370   -0.2455 C   0  0  0  0  0  0  0  0  0  0  0  0
   -3.4434   -0.0656   -0.5677 C   0  0  2  0  0  0  0  0  0  0  0  0
   -0.6479   -1.0958    0.9491 C   0  0  1  0  0  0  0  0  0  0  0  0
   -1.7102   -1.7566    0.0480 C   0  0  0  0  0  0  0  0  0  0  0  0
   -4.2671    1.9574    0.8231 C   0  0  0  0  0  0  0  0  0  0  0  0
   -3.4014    2.2915   -1.5099 C   0  0  0  0  0  0  0  0  0  0  0  0
   -4.8320   -0.6100   -0.4585 C   0  0  0  0  0  0  0  0  0  0  0  0
    1.7535   -0.4413    0.8644 C   0  0  0  0  0  0  0  0  0  0  0  0
    2.8575    0.0450   -0.0026 C   0  0  0  0  0  0  0  0  0  0  0  0
    3.0397    1.4060   -0.1547 C   0  0  0  0  0  0  0  0  0  0  0  0
    3.6709   -0.8764   -0.6335 C   0  0  0  0  0  0  0  0  0  0  0  0
    4.0756    1.8633   -0.9695 C   0  0  0  0  0  0  0  0  0  0  0  0
    4.7066   -0.4190   -1.4483 C   0  0  0  0  0  0  0  0  0  0  0  0
    4.9090    0.9508   -1.6162 C   0  0  0  0  0  0  0  0  0  0  0  0
    2.6395    2.7535    1.7635 C   0  0  0  0  0  0  0  0  0  0  0  0
    4.1878   -2.8501    0.5887 C   0  0  0  0  0  0  0  0  0  0  0  0
   -2.0791   -0.0232    2.3000 H   0  0  0  0  0  0  0  0  0  0  0  0
   -3.0689   -0.3030   -1.5727 H   0  0  0  0  0  0  0  0  0  0  0  0
   -0.3956   -1.7382    1.8022 H   0  0  0  0  0  0  0  0  0  0  0  0
   -4.2487    1.3469    1.7329 H   0  0  0  0  0  0  0  0  0  0  0  0
   -4.0327    2.9902    1.1081 H   0  0  0  0  0  0  0  0  0  0  0  0
   -5.2987    1.9609    0.4540 H   0  0  0  0  0  0  0  0  0  0  0  0
   -3.2034    3.3489   -1.2978 H   0  0  0  0  0  0  0  0  0  0  0  0
   -2.6925    1.9675   -2.2809 H   0  0  0  0  0  0  0  0  0  0  0  0
   -4.4050    2.2332   -1.9446 H   0  0  0  0  0  0  0  0  0  0  0  0
    0.4953   -0.4531   -0.7716 H   0  0  0  0  0  0  0  0  0  0  0  0
   -6.5620   -0.3793   -1.3227 H   0  0  0  0  0  0  0  0  0  0  0  0
    4.2388    2.9289   -1.1058 H   0  0  0  0  0  0  0  0  0  0  0  0
    5.3595   -1.1238   -1.9561 H   0  0  0  0  0  0  0  0  0  0  0  0
    5.7152    1.3069   -2.2507 H   0  0  0  0  0  0  0  0  0  0  0  0
    1.8390    3.3720    2.1786 H   0  0  0  0  0  0  0  0  0  0  0  0
    3.5471    3.3609    1.6896 H   0  0  0  0  0  0  0  0  0  0  0  0
    2.8120    1.9084    2.4362 H   0  0  0  0  0  0  0  0  0  0  0  0
    3.8657   -3.8938    0.6383 H   0  0  0  0  0  0  0  0  0  0  0  0
    3.9647   -2.3703    1.5460 H   0  0  0  0  0  0  0  0  0  0  0  0
    5.2662   -2.8263    0.4027 H   0  0  0  0  0  0  0  0  0  0  0  0
  1 10  1  0  0  0  0
  1 11  1  0  0  0  0
  2 14  2  0  0  0  0
  3 17  1  0  0  0  0
  3 37  1  0  0  0  0
  4 17  2  0  0  0  0
  5 18  2  0  0  0  0
  6 20  1  0  0  0  0
  6 25  1  0  0  0  0
  7 21  1  0  0  0  0
  7 26  1  0  0  0  0
  8 10  1  0  0  0  0
  8 12  1  0  0  0  0
  8 14  1  0  0  0  0
  9 13  1  0  0  0  0
  9 18  1  0  0  0  0
  9 36  1  0  0  0  0
 10 13  1  0  0  0  0
 10 27  1  0  0  0  0
 11 12  1  0  0  0  0
 11 15  1  0  0  0  0
 11 16  1  0  0  0  0
 12 17  1  0  0  0  0
 12 28  1  0  0  0  0
 13 14  1  0  0  0  0
 13 29  1  0  0  0  0
 15 30  1  0  0  0  0
 15 31  1  0  0  0  0
 15 32  1  0  0  0  0
 16 33  1  0  0  0  0
 16 34  1  0  0  0  0
 16 35  1  0  0  0  0
 18 19  1  0  0  0  0
 19 20  2  0  0  0  0
 19 21  1  0  0  0  0
 20 22  1  0  0  0  0
 21 23  2  0  0  0  0
 22 24  2  0  0  0  0
 22 38  1  0  0  0  0
 23 24  1  0  0  0  0
 23 39  1  0  0  0  0
 24 40  1  0  0  0  0
 25 41  1  0  0  0  0
 25 42  1  0  0  0  0
 25 43  1  0  0  0  0
 26 44  1  0  0  0  0
 26 45  1  0  0  0  0
 26 46  1  0  0  0  0
M  END
> <DATABASE_ID>
DB01603

> <DATABASE_NAME>
drugbank

> <ORIGINAL_SOURCE>
PUBCHEM

> <ORIGINAL_SOURCE_URL>
https://pubchem.ncbi.nlm.nih.gov/rest/pug/compound/inchikey/RJQXTJLFIWVMTO-TYNCELHUSA-N/SDF?record_type=3d

> <SMILES>
[H][C@]12SC(C)(C)[C@@H](N1C(=O)[C@H]2NC(=O)C1=C(OC)C=CC=C1OC)C(O)=O

> <INCHI_IDENTIFIER>
InChI=1S/C17H20N2O6S/c1-17(2)12(16(22)23)19-14(21)11(15(19)26-17)18-13(20)10-8(24-3)6-5-7-9(10)25-4/h5-7,11-12,15H,1-4H3,(H,18,20)(H,22,23)/t11-,12+,15-/m1/s1

> <INCHI_KEY>
RJQXTJLFIWVMTO-TYNCELHUSA-N

> <FORMULA>
C17H20N2O6S

> <MOLECULAR_WEIGHT>
380.415

> <EXACT_MASS>
380.104207072

> <JCHEM_ACCEPTOR_COUNT>
6

> <JCHEM_AVERAGE_POLARIZABILITY>
37.271308308670214

> <JCHEM_BIOAVAILABILITY>
1

> <JCHEM_DONOR_COUNT>
2

> <JCHEM_FORMAL_CHARGE>
0

> <JCHEM_GHOSE_FILTER>
1

> <JCHEM_IUPAC>
(2S,5R,6R)-6-(2,6-dimethoxybenzamido)-3,3-dimethyl-7-oxo-4-thia-1-azabicyclo[3.2.0]heptane-2-carboxylic acid

> <ALOGPS_LOGP>
1.79

> <JCHEM_LOGP>
0.7851700403333338

> <ALOGPS_LOGS>
-3.09

> <JCHEM_MDDR_LIKE_RULE>
0

> <JCHEM_NUMBER_OF_RINGS>
3

> <JCHEM_PHYSIOLOGICAL_CHARGE>
-1

> <JCHEM_PKA>
13.328155958919588

> <JCHEM_PKA_STRONGEST_ACIDIC>
2.964298910682354

> <JCHEM_PKA_STRONGEST_BASIC>
-1.839287035616584

> <JCHEM_POLAR_SURFACE_AREA>
105.17

> <JCHEM_REFRACTIVITY>
93.40280000000001

> <JCHEM_ROTATABLE_BOND_COUNT>
5

> <JCHEM_RULE_OF_FIVE>
1

> <ALOGPS_SOLUBILITY>
3.10e-01 g/l

> <JCHEM_TRADITIONAL_IUPAC>
methicillin

> <JCHEM_VEBER_RULE>
0

$$$$
33478
  -OEChem-10051719383D

 61 63  0     1  0  0  0  0  0999 V2000
    1.1522    0.2200    1.1017 S   0  0  0  0  0  0  0  0  0  0  0  0
    0.6819   -3.1311   -1.7198 O   0  0  0  0  0  0  0  0  0  0  0  0
   -3.0095   -0.8749   -1.2490 O   0  0  0  0  0  0  0  0  0  0  0  0
   -2.6772   -2.2177    0.6020 O   0  0  0  0  0  0  0  0  0  0  0  0
    4.3428   -1.4205    1.7098 O   0  0  0  0  0  0  0  0  0  0  0  0
   -5.2606   -0.6147   -0.4490 O   0  0  0  0  0  0  0  0  0  0  0  0
   -4.6676    1.4058   -1.3769 O   0  0  0  0  0  0  0  0  0  0  0  0
   -0.0020   -1.9135    0.1828 N   0  0  0  0  0  0  0  0  0  0  0  0
    3.1416   -1.7025   -0.2534 N   0  0  0  0  0  0  0  0  0  0  0  0
    6.5939   -0.8154    0.2273 N   0  0  0  0  0  0  0  0  0  0  0  0
    1.0184   -1.6030    1.1885 C   0  0  1  0  0  0  0  0  0  0  0  0
   -0.6454    0.3683    0.6367 C   0  0  0  0  0  0  0  0  0  0  0  0
   -0.8913   -0.8608   -0.2647 C   0  0  2  0  0  0  0  0  0  0  0  0
    2.0091   -2.4101    0.3383 C   0  0  1  0  0  0  0  0  0  0  0  0
    0.8261   -2.6395   -0.6234 C   0  0  0  0  0  0  0  0  0  0  0  0
   -0.8541    1.6744   -0.1320 C   0  0  0  0  0  0  0  0  0  0  0  0
   -1.4685    0.3832    1.9319 C   0  0  0  0  0  0  0  0  0  0  0  0
   -2.2810   -1.4120   -0.2292 C   0  0  0  0  0  0  0  0  0  0  0  0
    4.2342   -1.2585    0.4953 C   0  0  0  0  0  0  0  0  0  0  0  0
    5.2756   -0.5284   -0.3456 C   0  0  1  0  0  0  0  0  0  0  0  0
   -4.3770   -1.3056   -1.3472 C   0  0  0  0  0  0  0  0  0  0  0  0
    4.9811    0.9564   -0.4005 C   0  0  0  0  0  0  0  0  0  0  0  0
   -6.2810    1.3373    0.4569 C   0  0  0  0  0  0  0  0  0  0  0  0
    4.1684    1.4692   -1.4115 C   0  0  0  0  0  0  0  0  0  0  0  0
    5.5221    1.8108    0.5603 C   0  0  0  0  0  0  0  0  0  0  0  0
   -5.3112    0.7453   -0.5704 C   0  0  0  0  0  0  0  0  0  0  0  0
   -7.6922    0.7877    0.2105 C   0  0  0  0  0  0  0  0  0  0  0  0
   -5.8047    0.9767    1.8706 C   0  0  0  0  0  0  0  0  0  0  0  0
   -6.3092    2.8674    0.3138 C   0  0  0  0  0  0  0  0  0  0  0  0
    3.8969    2.8365   -1.4621 C   0  0  0  0  0  0  0  0  0  0  0  0
    5.2504    3.1781    0.5098 C   0  0  0  0  0  0  0  0  0  0  0  0
    4.4378    3.6909   -0.5014 C   0  0  0  0  0  0  0  0  0  0  0  0
    0.7837   -2.0167    2.1734 H   0  0  0  0  0  0  0  0  0  0  0  0
   -0.6226   -0.6487   -1.3089 H   0  0  0  0  0  0  0  0  0  0  0  0
    2.3324   -3.3454    0.8121 H   0  0  0  0  0  0  0  0  0  0  0  0
   -0.6093    2.5485    0.4825 H   0  0  0  0  0  0  0  0  0  0  0  0
   -0.2383    1.7180   -1.0378 H   0  0  0  0  0  0  0  0  0  0  0  0
   -1.8997    1.7768   -0.4432 H   0  0  0  0  0  0  0  0  0  0  0  0
   -1.1817    1.2203    2.5796 H   0  0  0  0  0  0  0  0  0  0  0  0
   -2.5350    0.5032    1.7137 H   0  0  0  0  0  0  0  0  0  0  0  0
   -1.3545   -0.5405    2.5099 H   0  0  0  0  0  0  0  0  0  0  0  0
    3.1457   -1.5136   -1.2530 H   0  0  0  0  0  0  0  0  0  0  0  0
    5.2730   -0.9359   -1.3643 H   0  0  0  0  0  0  0  0  0  0  0  0
   -4.4589   -2.3811   -1.1538 H   0  0  0  0  0  0  0  0  0  0  0  0
   -4.7135   -1.1386   -2.3766 H   0  0  0  0  0  0  0  0  0  0  0  0
    6.7630   -1.8208    0.2040 H   0  0  0  0  0  0  0  0  0  0  0  0
    7.3171   -0.3990   -0.3591 H   0  0  0  0  0  0  0  0  0  0  0  0
    3.7397    0.8146   -2.1655 H   0  0  0  0  0  0  0  0  0  0  0  0
    6.1444    1.4418    1.3707 H   0  0  0  0  0  0  0  0  0  0  0  0
   -8.0200    0.9910   -0.8156 H   0  0  0  0  0  0  0  0  0  0  0  0
   -7.7333   -0.2977    0.3548 H   0  0  0  0  0  0  0  0  0  0  0  0
   -8.4194    1.2398    0.8942 H   0  0  0  0  0  0  0  0  0  0  0  0
   -6.4591    1.4157    2.6320 H   0  0  0  0  0  0  0  0  0  0  0  0
   -5.7921   -0.1071    2.0315 H   0  0  0  0  0  0  0  0  0  0  0  0
   -4.7885    1.3448    2.0490 H   0  0  0  0  0  0  0  0  0  0  0  0
   -6.9920    3.3225    1.0400 H   0  0  0  0  0  0  0  0  0  0  0  0
   -6.6383    3.1667   -0.6881 H   0  0  0  0  0  0  0  0  0  0  0  0
   -5.3145    3.2998    0.4736 H   0  0  0  0  0  0  0  0  0  0  0  0
    3.2632    3.2356   -2.2486 H   0  0  0  0  0  0  0  0  0  0  0  0
    5.6679    3.8432    1.2601 H   0  0  0  0  0  0  0  0  0  0  0  0
    4.2250    4.7552   -0.5398 H   0  0  0  0  0  0  0  0  0  0  0  0
  1 11  1  0  0  0  0
  1 12  1  0  0  0  0
  2 15  2  0  0  0  0
  3 18  1  0  0  0  0
  3 21  1  0  0  0  0
  4 18  2  0  0  0  0
  5 19  2  0  0  0  0
  6 21  1  0  0  0  0
  6 26  1  0  0  0  0
  7 26  2  0  0  0  0
  8 11  1  0  0  0  0
  8 13  1  0  0  0  0
  8 15  1  0  0  0  0
  9 14  1  0  0  0  0
  9 19  1  0  0  0  0
  9 42  1  0  0  0  0
 10 20  1  0  0  0  0
 10 46  1  0  0  0  0
 10 47  1  0  0  0  0
 11 14  1  0  0  0  0
 11 33  1  0  0  0  0
 12 13  1  0  0  0  0
 12 16  1  0  0  0  0
 12 17  1  0  0  0  0
 13 18  1  0  0  0  0
 13 34  1  0  0  0  0
 14 15  1  0  0  0  0
 14 35  1  0  0  0  0
 16 36  1  0  0  0  0
 16 37  1  0  0  0  0
 16 38  1  0  0  0  0
 17 39  1  0  0  0  0
 17 40  1  0  0  0  0
 17 41  1  0  0  0  0
 19 20  1  0  0  0  0
 20 22  1  0  0  0  0
 20 43  1  0  0  0  0
 21 44  1  0  0  0  0
 21 45  1  0  0  0  0
 22 24  2  0  0  0  0
 22 25  1  0  0  0  0
 23 26  1  0  0  0  0
 23 27  1  0  0  0  0
 23 28  1  0  0  0  0
 23 29  1  0  0  0  0
 24 30  1  0  0  0  0
 24 48  1  0  0  0  0
 25 31  2  0  0  0  0
 25 49  1  0  0  0  0
 27 50  1  0  0  0  0
 27 51  1  0  0  0  0
 27 52  1  0  0  0  0
 28 53  1  0  0  0  0
 28 54  1  0  0  0  0
 28 55  1  0  0  0  0
 29 56  1  0  0  0  0
 29 57  1  0  0  0  0
 29 58  1  0  0  0  0
 30 32  2  0  0  0  0
 30 59  1  0  0  0  0
 31 32  1  0  0  0  0
 31 60  1  0  0  0  0
 32 61  1  0  0  0  0
M  END
> <DATABASE_ID>
DB01604

> <DATABASE_NAME>
drugbank

> <ORIGINAL_SOURCE>
PUBCHEM

> <ORIGINAL_SOURCE_URL>
https://pubchem.ncbi.nlm.nih.gov/rest/pug/compound/inchikey/ZEMIJUDPLILVNQ-ZXFNITATSA-N/SDF?record_type=3d

> <SMILES>
[H][C@]12SC(C)(C)[C@@H](N1C(=O)[C@H]2NC(=O)[C@H](N)C1=CC=CC=C1)C(=O)OCOC(=O)C(C)(C)C

> <INCHI_IDENTIFIER>
InChI=1S/C22H29N3O6S/c1-21(2,3)20(29)31-11-30-19(28)15-22(4,5)32-18-14(17(27)25(15)18)24-16(26)13(23)12-9-7-6-8-10-12/h6-10,13-15,18H,11,23H2,1-5H3,(H,24,26)/t13-,14-,15+,18-/m1/s1

> <INCHI_KEY>
ZEMIJUDPLILVNQ-ZXFNITATSA-N

> <FORMULA>
C22H29N3O6S

> <MOLECULAR_WEIGHT>
463.547

> <EXACT_MASS>
463.177706365

> <JCHEM_ACCEPTOR_COUNT>
5

> <JCHEM_AVERAGE_POLARIZABILITY>
47.53968324049653

> <JCHEM_BIOAVAILABILITY>
1

> <JCHEM_DONOR_COUNT>
2

> <JCHEM_FORMAL_CHARGE>
0

> <JCHEM_GHOSE_FILTER>
1

> <JCHEM_IUPAC>
[(2S,5R,6R)-6-[(2R)-2-amino-2-phenylacetamido]-3,3-dimethyl-7-oxo-4-thia-1-azabicyclo[3.2.0]heptane-2-carbonyloxy]methyl 2,2-dimethylpropanoate

> <ALOGPS_LOGP>
1.43

> <JCHEM_LOGP>
2.065192519666666

> <ALOGPS_LOGS>
-4.12

> <JCHEM_MDDR_LIKE_RULE>
1

> <JCHEM_NUMBER_OF_RINGS>
3

> <JCHEM_PHYSIOLOGICAL_CHARGE>
1

> <JCHEM_PKA>
14.348867428920723

> <JCHEM_PKA_STRONGEST_ACIDIC>
11.707929021475366

> <JCHEM_PKA_STRONGEST_BASIC>
7.438306945693415

> <JCHEM_POLAR_SURFACE_AREA>
128.03

> <JCHEM_REFRACTIVITY>
116.24830000000001

> <JCHEM_ROTATABLE_BOND_COUNT>
9

> <JCHEM_RULE_OF_FIVE>
1

> <ALOGPS_SOLUBILITY>
3.54e-02 g/l

> <JCHEM_TRADITIONAL_IUPAC>
pivampicillin

> <JCHEM_VEBER_RULE>
0

$$$$
115163
  -OEChem-10051719383D

 63 65  0     1  0  0  0  0  0999 V2000
    1.1389    1.1139    0.4864 S   0  0  0  0  0  0  0  0  0  0  0  0
    0.8700   -3.1158   -0.7175 O   0  0  0  0  0  0  0  0  0  0  0  0
   -2.9223   -1.0411   -1.2184 O   0  0  0  0  0  0  0  0  0  0  0  0
   -2.5729   -1.4925    1.0205 O   0  0  0  0  0  0  0  0  0  0  0  0
   -5.0927   -0.8052   -0.2139 O   0  0  0  0  0  0  0  0  0  0  0  0
   -5.3573    0.8841   -1.7537 O   0  0  0  0  0  0  0  0  0  0  0  0
    0.0954   -1.2606    0.5188 N   0  0  0  0  0  0  0  0  0  0  0  0
    3.1652   -1.0619   -0.0066 N   0  0  0  0  0  0  0  0  0  0  0  0
    5.4665   -0.4520    0.0165 N   0  0  0  0  0  0  0  0  0  0  0  0
    1.0803   -0.5185    1.3113 C   0  0  1  0  0  0  0  0  0  0  0  0
   -0.6531    0.9743   -0.0022 C   0  0  0  0  0  0  0  0  0  0  0  0
   -0.8280   -0.5259   -0.3221 C   0  0  2  0  0  0  0  0  0  0  0  0
    2.1219   -1.5550    0.8679 C   0  0  1  0  0  0  0  0  0  0  0  0
    0.9702   -2.2128    0.0820 C   0  0  0  0  0  0  0  0  0  0  0  0
   -0.9006    1.8407   -1.2385 C   0  0  0  0  0  0  0  0  0  0  0  0
   -1.5032    1.4785    1.1720 C   0  0  0  0  0  0  0  0  0  0  0  0
   -2.1936   -1.0792   -0.0669 C   0  0  0  0  0  0  0  0  0  0  0  0
    4.3128   -0.8974    0.5753 C   0  0  0  0  0  0  0  0  0  0  0  0
    5.5231   -0.1414   -1.4106 C   0  0  0  0  0  0  0  0  0  0  0  0
    6.6798   -0.3234    0.8186 C   0  0  0  0  0  0  0  0  0  0  0  0
    6.5103    0.9622   -1.7865 C   0  0  0  0  0  0  0  0  0  0  0  0
    6.7913    1.0925    1.3777 C   0  0  0  0  0  0  0  0  0  0  0  0
    6.4133    2.2150   -0.9158 C   0  0  0  0  0  0  0  0  0  0  0  0
    7.2579    2.1284    0.3561 C   0  0  0  0  0  0  0  0  0  0  0  0
   -4.2682   -1.5382   -1.1346 C   0  0  0  0  0  0  0  0  0  0  0  0
   -6.4204    1.0610    0.4392 C   0  0  0  0  0  0  0  0  0  0  0  0
   -5.5746    0.3962   -0.6512 C   0  0  0  0  0  0  0  0  0  0  0  0
   -6.9375    2.4169   -0.0676 C   0  0  0  0  0  0  0  0  0  0  0  0
   -5.5531    1.2912    1.6843 C   0  0  0  0  0  0  0  0  0  0  0  0
   -7.6195    0.1660    0.7795 C   0  0  0  0  0  0  0  0  0  0  0  0
    0.8426   -0.5044    2.3788 H   0  0  0  0  0  0  0  0  0  0  0  0
   -0.5466   -0.7469   -1.3611 H   0  0  0  0  0  0  0  0  0  0  0  0
    2.4700   -2.2128    1.6755 H   0  0  0  0  0  0  0  0  0  0  0  0
   -0.7078    2.9004   -1.0347 H   0  0  0  0  0  0  0  0  0  0  0  0
   -0.2674    1.5403   -2.0814 H   0  0  0  0  0  0  0  0  0  0  0  0
   -1.9428    1.7555   -1.5672 H   0  0  0  0  0  0  0  0  0  0  0  0
   -1.2628    2.5179    1.4250 H   0  0  0  0  0  0  0  0  0  0  0  0
   -2.5656    1.4530    0.9130 H   0  0  0  0  0  0  0  0  0  0  0  0
   -1.3695    0.8741    2.0759 H   0  0  0  0  0  0  0  0  0  0  0  0
    4.4213   -1.1145    1.6533 H   0  0  0  0  0  0  0  0  0  0  0  0
    4.5328    0.1746   -1.7623 H   0  0  0  0  0  0  0  0  0  0  0  0
    5.7742   -1.0541   -1.9640 H   0  0  0  0  0  0  0  0  0  0  0  0
    6.6473   -1.0333    1.6547 H   0  0  0  0  0  0  0  0  0  0  0  0
    7.5697   -0.5941    0.2386 H   0  0  0  0  0  0  0  0  0  0  0  0
    7.5364    0.5752   -1.7794 H   0  0  0  0  0  0  0  0  0  0  0  0
    6.3072    1.2440   -2.8277 H   0  0  0  0  0  0  0  0  0  0  0  0
    5.8312    1.4089    1.8042 H   0  0  0  0  0  0  0  0  0  0  0  0
    7.5136    1.0863    2.2033 H   0  0  0  0  0  0  0  0  0  0  0  0
    6.7887    3.0640   -1.5009 H   0  0  0  0  0  0  0  0  0  0  0  0
    5.3688    2.4412   -0.6712 H   0  0  0  0  0  0  0  0  0  0  0  0
    7.2578    3.1123    0.8416 H   0  0  0  0  0  0  0  0  0  0  0  0
    8.3009    1.9221    0.0848 H   0  0  0  0  0  0  0  0  0  0  0  0
   -4.7068   -1.5211   -2.1387 H   0  0  0  0  0  0  0  0  0  0  0  0
   -4.2454   -2.5855   -0.8128 H   0  0  0  0  0  0  0  0  0  0  0  0
   -7.5413    2.9221    0.6945 H   0  0  0  0  0  0  0  0  0  0  0  0
   -7.5601    2.2954   -0.9617 H   0  0  0  0  0  0  0  0  0  0  0  0
   -6.1095    3.0840   -0.3346 H   0  0  0  0  0  0  0  0  0  0  0  0
   -4.7134    1.9562    1.4588 H   0  0  0  0  0  0  0  0  0  0  0  0
   -5.1380    0.3552    2.0740 H   0  0  0  0  0  0  0  0  0  0  0  0
   -6.1353    1.7544    2.4889 H   0  0  0  0  0  0  0  0  0  0  0  0
   -7.2991   -0.7939    1.2001 H   0  0  0  0  0  0  0  0  0  0  0  0
   -8.2129   -0.0538   -0.1154 H   0  0  0  0  0  0  0  0  0  0  0  0
   -8.2774    0.6450    1.5130 H   0  0  0  0  0  0  0  0  0  0  0  0
  1 10  1  0  0  0  0
  1 11  1  0  0  0  0
  2 14  2  0  0  0  0
  3 17  1  0  0  0  0
  3 25  1  0  0  0  0
  4 17  2  0  0  0  0
  5 25  1  0  0  0  0
  5 27  1  0  0  0  0
  6 27  2  0  0  0  0
  7 10  1  0  0  0  0
  7 12  1  0  0  0  0
  7 14  1  0  0  0  0
  8 13  1  0  0  0  0
  8 18  2  0  0  0  0
  9 18  1  0  0  0  0
  9 19  1  0  0  0  0
  9 20  1  0  0  0  0
 10 13  1  0  0  0  0
 10 31  1  0  0  0  0
 11 12  1  0  0  0  0
 11 15  1  0  0  0  0
 11 16  1  0  0  0  0
 12 17  1  0  0  0  0
 12 32  1  0  0  0  0
 13 14  1  0  0  0  0
 13 33  1  0  0  0  0
 15 34  1  0  0  0  0
 15 35  1  0  0  0  0
 15 36  1  0  0  0  0
 16 37  1  0  0  0  0
 16 38  1  0  0  0  0
 16 39  1  0  0  0  0
 18 40  1  0  0  0  0
 19 21  1  0  0  0  0
 19 41  1  0  0  0  0
 19 42  1  0  0  0  0
 20 22  1  0  0  0  0
 20 43  1  0  0  0  0
 20 44  1  0  0  0  0
 21 23  1  0  0  0  0
 21 45  1  0  0  0  0
 21 46  1  0  0  0  0
 22 24  1  0  0  0  0
 22 47  1  0  0  0  0
 22 48  1  0  0  0  0
 23 24  1  0  0  0  0
 23 49  1  0  0  0  0
 23 50  1  0  0  0  0
 24 51  1  0  0  0  0
 24 52  1  0  0  0  0
 25 53  1  0  0  0  0
 25 54  1  0  0  0  0
 26 27  1  0  0  0  0
 26 28  1  0  0  0  0
 26 29  1  0  0  0  0
 26 30  1  0  0  0  0
 28 55  1  0  0  0  0
 28 56  1  0  0  0  0
 28 57  1  0  0  0  0
 29 58  1  0  0  0  0
 29 59  1  0  0  0  0
 29 60  1  0  0  0  0
 30 61  1  0  0  0  0
 30 62  1  0  0  0  0
 30 63  1  0  0  0  0
M  END
> <DATABASE_ID>
DB01605

> <DATABASE_NAME>
drugbank

> <ORIGINAL_SOURCE>
PUBCHEM

> <ORIGINAL_SOURCE_URL>
https://pubchem.ncbi.nlm.nih.gov/rest/pug/compound/inchikey/NPGNOVNWUSPMDP-HLLBOEOZSA-N/SDF?record_type=3d

> <SMILES>
[H]C(=N[C@@H]1C(=O)N2[C@@H](C(=O)OCOC(=O)C(C)(C)C)C(C)(C)S[C@]12[H])N1CCCCCC1

> <INCHI_IDENTIFIER>
InChI=1S/C21H33N3O5S/c1-20(2,3)19(27)29-13-28-18(26)15-21(4,5)30-17-14(16(25)24(15)17)22-12-23-10-8-6-7-9-11-23/h12,14-15,17H,6-11,13H2,1-5H3/t14-,15+,17-/m1/s1

> <INCHI_KEY>
NPGNOVNWUSPMDP-HLLBOEOZSA-N

> <FORMULA>
C21H33N3O5S

> <MOLECULAR_WEIGHT>
439.569

> <EXACT_MASS>
439.214091871

> <JCHEM_ACCEPTOR_COUNT>
5

> <JCHEM_AVERAGE_POLARIZABILITY>
47.70248610180789

> <JCHEM_BIOAVAILABILITY>
1

> <JCHEM_DONOR_COUNT>
0

> <JCHEM_FORMAL_CHARGE>
0

> <JCHEM_GHOSE_FILTER>
1

> <JCHEM_IUPAC>
[(2S,5R,6R)-6-[(azepan-1-ylmethylidene)amino]-3,3-dimethyl-7-oxo-4-thia-1-azabicyclo[3.2.0]heptane-2-carbonyloxy]methyl 2,2-dimethylpropanoate

> <ALOGPS_LOGP>
3.23

> <JCHEM_LOGP>
2.9085426906666667

> <ALOGPS_LOGS>
-3.92

> <JCHEM_MDDR_LIKE_RULE>
1

> <JCHEM_NUMBER_OF_RINGS>
3

> <JCHEM_PHYSIOLOGICAL_CHARGE>
1

> <JCHEM_PKA_STRONGEST_ACIDIC>
13.660257128507617

> <JCHEM_PKA_STRONGEST_BASIC>
7.914073683805415

> <JCHEM_POLAR_SURFACE_AREA>
88.50999999999999

> <JCHEM_REFRACTIVITY>
113.0317

> <JCHEM_ROTATABLE_BOND_COUNT>
7

> <JCHEM_RULE_OF_FIVE>
1

> <ALOGPS_SOLUBILITY>
5.26e-02 g/l

> <JCHEM_TRADITIONAL_IUPAC>
pivmecilinamo

> <JCHEM_VEBER_RULE>
0

$$$$
36921
  -OEChem-10051719383D

 41 43  0     1  0  0  0  0  0999 V2000
    1.0628   -0.6982    1.0501 S   0  0  0  0  0  0  0  0  0  0  0  0
   -2.6601   -3.3371   -0.8893 S   0  0  0  0  0  0  0  0  0  0  0  0
    2.0325    2.1271   -2.1596 O   0  0  0  0  0  0  0  0  0  0  0  0
    5.5672   -0.6606    0.0024 O   0  0  0  0  0  0  0  0  0  0  0  0
    4.4427    0.4102    1.6712 O   0  0  0  0  0  0  0  0  0  0  0  0
   -1.7230    1.5647    1.5369 O   0  0  0  0  0  0  0  0  0  0  0  0
   -4.3303    2.4972   -0.1104 O   0  0  0  0  0  0  0  0  0  0  0  0
   -5.1571    0.4895    0.5519 O   0  0  0  0  0  0  0  0  0  0  0  0
    2.5876    1.0918   -0.1138 N   0  0  0  0  0  0  0  0  0  0  0  0
   -0.5725    1.3850   -0.4701 N   0  0  0  0  0  0  0  0  0  0  0  0
    1.5601    1.0615    0.9281 C   0  0  1  0  0  0  0  0  0  0  0  0
    2.3218   -1.2860   -0.1883 C   0  0  0  0  0  0  0  0  0  0  0  0
    3.3163   -0.1225   -0.4001 C   0  0  2  0  0  0  0  0  0  0  0  0
    0.6989    1.9436    0.0092 C   0  0  1  0  0  0  0  0  0  0  0  0
    1.8564    1.8249   -1.0014 C   0  0  0  0  0  0  0  0  0  0  0  0
    2.9736   -2.5717    0.3311 C   0  0  0  0  0  0  0  0  0  0  0  0
    1.5697   -1.6013   -1.4923 C   0  0  0  0  0  0  0  0  0  0  0  0
    4.4727   -0.0801    0.5522 C   0  0  0  0  0  0  0  0  0  0  0  0
   -1.6926    1.2418    0.3506 C   0  0  0  0  0  0  0  0  0  0  0  0
   -2.8931    0.6272   -0.3671 C   0  0  1  0  0  0  0  0  0  0  0  0
   -2.8249   -0.8795   -0.2673 C   0  0  0  0  0  0  0  0  0  0  0  0
   -4.2375    1.1584    0.1015 C   0  0  0  0  0  0  0  0  0  0  0  0
   -2.8696   -1.5671    0.9608 C   0  0  0  0  0  0  0  0  0  0  0  0
   -2.7130   -1.6901   -1.3548 C   0  0  0  0  0  0  0  0  0  0  0  0
   -2.7884   -2.9287    0.7687 C   0  0  0  0  0  0  0  0  0  0  0  0
    1.8771    1.5267    1.8655 H   0  0  0  0  0  0  0  0  0  0  0  0
    3.6847   -0.0743   -1.4317 H   0  0  0  0  0  0  0  0  0  0  0  0
    0.5722    2.9718    0.3690 H   0  0  0  0  0  0  0  0  0  0  0  0
    2.2405   -3.3811    0.4312 H   0  0  0  0  0  0  0  0  0  0  0  0
    3.7475   -2.9206   -0.3622 H   0  0  0  0  0  0  0  0  0  0  0  0
    3.4426   -2.4346    1.3118 H   0  0  0  0  0  0  0  0  0  0  0  0
    2.2687   -1.9487   -2.2623 H   0  0  0  0  0  0  0  0  0  0  0  0
    0.8274   -2.3954   -1.3487 H   0  0  0  0  0  0  0  0  0  0  0  0
    1.0489   -0.7297   -1.9011 H   0  0  0  0  0  0  0  0  0  0  0  0
   -0.6512    1.0804   -1.4375 H   0  0  0  0  0  0  0  0  0  0  0  0
   -2.8349    0.9017   -1.4310 H   0  0  0  0  0  0  0  0  0  0  0  0
    6.3360   -0.6433    0.6115 H   0  0  0  0  0  0  0  0  0  0  0  0
   -2.9558   -1.1138    1.9400 H   0  0  0  0  0  0  0  0  0  0  0  0
   -2.6572   -1.4176   -2.3995 H   0  0  0  0  0  0  0  0  0  0  0  0
   -2.7977   -3.7030    1.5228 H   0  0  0  0  0  0  0  0  0  0  0  0
   -5.2053    2.8499    0.1584 H   0  0  0  0  0  0  0  0  0  0  0  0
  1 11  1  0  0  0  0
  1 12  1  0  0  0  0
  2 24  1  0  0  0  0
  2 25  1  0  0  0  0
  3 15  2  0  0  0  0
  4 18  1  0  0  0  0
  4 37  1  0  0  0  0
  5 18  2  0  0  0  0
  6 19  2  0  0  0  0
  7 22  1  0  0  0  0
  7 41  1  0  0  0  0
  8 22  2  0  0  0  0
  9 11  1  0  0  0  0
  9 13  1  0  0  0  0
  9 15  1  0  0  0  0
 10 14  1  0  0  0  0
 10 19  1  0  0  0  0
 10 35  1  0  0  0  0
 11 14  1  0  0  0  0
 11 26  1  0  0  0  0
 12 13  1  0  0  0  0
 12 16  1  0  0  0  0
 12 17  1  0  0  0  0
 13 18  1  0  0  0  0
 13 27  1  0  0  0  0
 14 15  1  0  0  0  0
 14 28  1  0  0  0  0
 16 29  1  0  0  0  0
 16 30  1  0  0  0  0
 16 31  1  0  0  0  0
 17 32  1  0  0  0  0
 17 33  1  0  0  0  0
 17 34  1  0  0  0  0
 19 20  1  0  0  0  0
 20 21  1  0  0  0  0
 20 22  1  0  0  0  0
 20 36  1  0  0  0  0
 21 23  1  0  0  0  0
 21 24  2  0  0  0  0
 23 25  2  0  0  0  0
 23 38  1  0  0  0  0
 24 39  1  0  0  0  0
 25 40  1  0  0  0  0
M  END
> <DATABASE_ID>
DB01607

> <DATABASE_NAME>
drugbank

> <ORIGINAL_SOURCE>
PUBCHEM

> <ORIGINAL_SOURCE_URL>
https://pubchem.ncbi.nlm.nih.gov/rest/pug/compound/inchikey/OHKOGUYZJXTSFX-KZFFXBSXSA-N/SDF?record_type=3d

> <SMILES>
[H][C@]12SC(C)(C)[C@@H](N1C(=O)[C@H]2NC(=O)[C@H](C(O)=O)C1=CSC=C1)C(O)=O

> <INCHI_IDENTIFIER>
InChI=1S/C15H16N2O6S2/c1-15(2)9(14(22)23)17-11(19)8(12(17)25-15)16-10(18)7(13(20)21)6-3-4-24-5-6/h3-5,7-9,12H,1-2H3,(H,16,18)(H,20,21)(H,22,23)/t7-,8-,9+,12-/m1/s1

> <INCHI_KEY>
OHKOGUYZJXTSFX-KZFFXBSXSA-N

> <FORMULA>
C15H16N2O6S2

> <MOLECULAR_WEIGHT>
384.427

> <EXACT_MASS>
384.044977634

> <JCHEM_ACCEPTOR_COUNT>
6

> <JCHEM_AVERAGE_POLARIZABILITY>
36.14269831493392

> <JCHEM_BIOAVAILABILITY>
1

> <JCHEM_DONOR_COUNT>
3

> <JCHEM_FORMAL_CHARGE>
0

> <JCHEM_GHOSE_FILTER>
1

> <JCHEM_IUPAC>
(2S,5R,6R)-6-[(2R)-2-carboxy-2-(thiophen-3-yl)acetamido]-3,3-dimethyl-7-oxo-4-thia-1-azabicyclo[3.2.0]heptane-2-carboxylic acid

> <ALOGPS_LOGP>
0.99

> <JCHEM_LOGP>
0.5957987833333339

> <ALOGPS_LOGS>
-3.73

> <JCHEM_MDDR_LIKE_RULE>
0

> <JCHEM_NUMBER_OF_RINGS>
3

> <JCHEM_PHYSIOLOGICAL_CHARGE>
-2

> <JCHEM_PKA>
4.122551213409252

> <JCHEM_PKA_STRONGEST_ACIDIC>
3.0920584971992358

> <JCHEM_PKA_STRONGEST_BASIC>
-6.31815645554628

> <JCHEM_POLAR_SURFACE_AREA>
124.01

> <JCHEM_REFRACTIVITY>
87.92530000000001

> <JCHEM_ROTATABLE_BOND_COUNT>
5

> <JCHEM_RULE_OF_FIVE>
1

> <ALOGPS_SOLUBILITY>
7.16e-02 g/l

> <JCHEM_TRADITIONAL_IUPAC>
ticarcillin

> <JCHEM_VEBER_RULE>
0

$$$$
3000226
  -OEChem-02062017413D

 85 88  0     1  0  0  0  0  0999 V2000
   -1.2813    1.9280   -1.3486 O   0  0  0  0  0  0  0  0  0  0  0  0
    2.5983   -3.0258    0.2260 O   0  0  0  0  0  0  0  0  0  0  0  0
   -6.2671    1.4292   -1.7484 O   0  0  0  0  0  0  0  0  0  0  0  0
    5.0934   -0.9052   -1.5051 O   0  0  0  0  0  0  0  0  0  0  0  0
    5.0105   -1.4881    0.6869 O   0  0  0  0  0  0  0  0  0  0  0  0
    1.8775   -4.9816   -0.7702 O   0  0  0  0  0  0  0  0  0  0  0  0
   -1.7251   -0.9013   -0.1012 C   0  0  1  0  0  0  0  0  0  0  0  0
   -2.0082    0.5248    0.5269 C   0  0  2  0  0  0  0  0  0  0  0  0
   -0.1844   -1.2595    0.1400 C   0  0  2  0  0  0  0  0  0  0  0  0
   -3.5590    0.9120    0.6851 C   0  0  2  0  0  0  0  0  0  0  0  0
   -4.5174   -0.1860    0.1094 C   0  0  1  0  0  0  0  0  0  0  0  0
    0.7026   -0.1379   -0.4719 C   0  0  1  0  0  0  0  0  0  0  0  0
   -2.6500   -1.8998    0.6475 C   0  0  0  0  0  0  0  0  0  0  0  0
   -1.0342    1.6265    0.0201 C   0  0  1  0  0  0  0  0  0  0  0  0
   -4.1522   -1.6063    0.5624 C   0  0  0  0  0  0  0  0  0  0  0  0
    0.4488    1.2196    0.1811 C   0  0  0  0  0  0  0  0  0  0  0  0
    0.3663   -2.5016   -0.6167 C   0  0  0  0  0  0  0  0  0  0  0  0
   -3.9357    2.2585    0.0093 C   0  0  0  0  0  0  0  0  0  0  0  0
   -6.0263    0.1565    0.3092 C   0  0  1  0  0  0  0  0  0  0  0  0
   -2.0549   -0.9485   -1.6238 C   0  0  0  0  0  0  0  0  0  0  0  0
    2.0670   -0.7763   -0.4835 C   0  0  0  0  0  0  0  0  0  0  0  0
    1.8893   -2.2601   -0.7359 C   0  0  1  0  0  0  0  0  0  0  0  0
    0.1368   -1.4868    1.6579 C   0  0  0  0  0  0  0  0  0  0  0  0
   -3.7931    1.0713    2.2220 C   0  0  0  0  0  0  0  0  0  0  0  0
   -5.4169    2.6342    0.1504 C   0  0  0  0  0  0  0  0  0  0  0  0
   -6.3547    1.5261   -0.3253 C   0  0  1  0  0  0  0  0  0  0  0  0
   -6.9526   -0.9239   -0.2697 C   0  0  0  0  0  0  0  0  0  0  0  0
    3.2355   -0.1711   -0.2411 C   0  0  0  0  0  0  0  0  0  0  0  0
    3.3158    1.2913    0.1374 C   0  0  0  0  0  0  0  0  0  0  0  0
    4.5171   -0.9281   -0.2815 C   0  0  0  0  0  0  0  0  0  0  0  0
    2.5072   -4.3845    0.0924 C   0  0  0  0  0  0  0  0  0  0  0  0
    4.7410    1.7702    0.4452 C   0  0  0  0  0  0  0  0  0  0  0  0
    3.3013   -5.0587    1.1699 C   0  0  0  0  0  0  0  0  0  0  0  0
    4.7832    3.2029    0.9018 C   0  0  0  0  0  0  0  0  0  0  0  0
    5.0188    4.3020    0.1605 C   0  0  0  0  0  0  0  0  0  0  0  0
    5.0377    5.6636    0.8031 C   0  0  0  0  0  0  0  0  0  0  0  0
    5.2651    4.3144   -1.3217 C   0  0  0  0  0  0  0  0  0  0  0  0
   -1.6849    0.4194    1.5684 H   0  0  0  0  0  0  0  0  0  0  0  0
   -4.3941   -0.1962   -0.9748 H   0  0  0  0  0  0  0  0  0  0  0  0
    0.4742   -0.0063   -1.5370 H   0  0  0  0  0  0  0  0  0  0  0  0
   -2.4037   -1.9013    1.7157 H   0  0  0  0  0  0  0  0  0  0  0  0
   -2.4632   -2.9248    0.3028 H   0  0  0  0  0  0  0  0  0  0  0  0
   -1.1924    2.5461    0.5947 H   0  0  0  0  0  0  0  0  0  0  0  0
   -4.5938   -2.3259   -0.1389 H   0  0  0  0  0  0  0  0  0  0  0  0
   -4.6083   -1.8224    1.5368 H   0  0  0  0  0  0  0  0  0  0  0  0
    0.6894    1.2054    1.2487 H   0  0  0  0  0  0  0  0  0  0  0  0
    1.0153    2.0112   -0.3099 H   0  0  0  0  0  0  0  0  0  0  0  0
   -0.0469   -2.5709   -1.6279 H   0  0  0  0  0  0  0  0  0  0  0  0
    0.0876   -3.4221   -0.0954 H   0  0  0  0  0  0  0  0  0  0  0  0
   -3.6918    2.2187   -1.0576 H   0  0  0  0  0  0  0  0  0  0  0  0
   -3.3472    3.0790    0.4357 H   0  0  0  0  0  0  0  0  0  0  0  0
   -6.2462    0.2114    1.3815 H   0  0  0  0  0  0  0  0  0  0  0  0
   -2.5151   -1.9038   -1.9006 H   0  0  0  0  0  0  0  0  0  0  0  0
   -2.7217   -0.1475   -1.9454 H   0  0  0  0  0  0  0  0  0  0  0  0
   -1.1828   -0.8380   -2.2703 H   0  0  0  0  0  0  0  0  0  0  0  0
    2.2388   -2.5136   -1.7448 H   0  0  0  0  0  0  0  0  0  0  0  0
    1.2098   -1.5688    1.8575 H   0  0  0  0  0  0  0  0  0  0  0  0
   -0.2162   -0.6827    2.3052 H   0  0  0  0  0  0  0  0  0  0  0  0
   -0.3081   -2.4213    2.0169 H   0  0  0  0  0  0  0  0  0  0  0  0
   -3.5730    0.1415    2.7583 H   0  0  0  0  0  0  0  0  0  0  0  0
   -3.1404    1.8524    2.6306 H   0  0  0  0  0  0  0  0  0  0  0  0
   -4.8155    1.3501    2.4848 H   0  0  0  0  0  0  0  0  0  0  0  0
   -5.6444    2.8914    1.1903 H   0  0  0  0  0  0  0  0  0  0  0  0
   -5.5946    3.5411   -0.4411 H   0  0  0  0  0  0  0  0  0  0  0  0
   -7.3885    1.8047   -0.0917 H   0  0  0  0  0  0  0  0  0  0  0  0
   -6.7137   -1.1448   -1.3152 H   0  0  0  0  0  0  0  0  0  0  0  0
   -6.8755   -1.8554    0.2999 H   0  0  0  0  0  0  0  0  0  0  0  0
   -7.9991   -0.6037   -0.2203 H   0  0  0  0  0  0  0  0  0  0  0  0
   -0.6946    2.6607   -1.6017 H   0  0  0  0  0  0  0  0  0  0  0  0
   -5.3418    1.3039   -2.0104 H   0  0  0  0  0  0  0  0  0  0  0  0
    2.9553    1.9005   -0.6979 H   0  0  0  0  0  0  0  0  0  0  0  0
    2.7414    1.4758    1.0479 H   0  0  0  0  0  0  0  0  0  0  0  0
    5.3929    1.6338   -0.4248 H   0  0  0  0  0  0  0  0  0  0  0  0
    5.1815    1.1682    1.2505 H   0  0  0  0  0  0  0  0  0  0  0  0
    2.9043   -4.7817    2.1497 H   0  0  0  0  0  0  0  0  0  0  0  0
    4.3534   -4.7751    1.0862 H   0  0  0  0  0  0  0  0  0  0  0  0
    3.2217   -6.1434    1.0549 H   0  0  0  0  0  0  0  0  0  0  0  0
    5.9424   -1.3963   -1.5204 H   0  0  0  0  0  0  0  0  0  0  0  0
    4.5971    3.3343    1.9671 H   0  0  0  0  0  0  0  0  0  0  0  0
    4.8593    5.6190    1.8827 H   0  0  0  0  0  0  0  0  0  0  0  0
    4.2625    6.3008    0.3648 H   0  0  0  0  0  0  0  0  0  0  0  0
    6.0104    6.1417    0.6475 H   0  0  0  0  0  0  0  0  0  0  0  0
    5.1527    3.3305   -1.7839 H   0  0  0  0  0  0  0  0  0  0  0  0
    6.2787    4.6706   -1.5328 H   0  0  0  0  0  0  0  0  0  0  0  0
    4.5534    4.9838   -1.8165 H   0  0  0  0  0  0  0  0  0  0  0  0
  1 14  1  0  0  0  0
  1 69  1  0  0  0  0
  2 22  1  0  0  0  0
  2 31  1  0  0  0  0
  3 26  1  0  0  0  0
  3 70  1  0  0  0  0
  4 30  1  0  0  0  0
  4 78  1  0  0  0  0
  5 30  2  0  0  0  0
  6 31  2  0  0  0  0
  7  8  1  0  0  0  0
  7  9  1  0  0  0  0
  7 13  1  0  0  0  0
  7 20  1  0  0  0  0
  8 10  1  0  0  0  0
  8 14  1  0  0  0  0
  8 38  1  0  0  0  0
  9 12  1  0  0  0  0
  9 17  1  0  0  0  0
  9 23  1  0  0  0  0
 10 11  1  0  0  0  0
 10 18  1  0  0  0  0
 10 24  1  0  0  0  0
 11 15  1  0  0  0  0
 11 19  1  0  0  0  0
 11 39  1  0  0  0  0
 12 16  1  0  0  0  0
 12 21  1  0  0  0  0
 12 40  1  0  0  0  0
 13 15  1  0  0  0  0
 13 41  1  0  0  0  0
 13 42  1  0  0  0  0
 14 16  1  0  0  0  0
 14 43  1  0  0  0  0
 15 44  1  0  0  0  0
 15 45  1  0  0  0  0
 16 46  1  0  0  0  0
 16 47  1  0  0  0  0
 17 22  1  0  0  0  0
 17 48  1  0  0  0  0
 17 49  1  0  0  0  0
 18 25  1  0  0  0  0
 18 50  1  0  0  0  0
 18 51  1  0  0  0  0
 19 26  1  0  0  0  0
 19 27  1  0  0  0  0
 19 52  1  0  0  0  0
 20 53  1  0  0  0  0
 20 54  1  0  0  0  0
 20 55  1  0  0  0  0
 21 22  1  0  0  0  0
 21 28  2  0  0  0  0
 22 56  1  0  0  0  0
 23 57  1  0  0  0  0
 23 58  1  0  0  0  0
 23 59  1  0  0  0  0
 24 60  1  0  0  0  0
 24 61  1  0  0  0  0
 24 62  1  0  0  0  0
 25 26  1  0  0  0  0
 25 63  1  0  0  0  0
 25 64  1  0  0  0  0
 26 65  1  0  0  0  0
 27 66  1  0  0  0  0
 27 67  1  0  0  0  0
 27 68  1  0  0  0  0
 28 29  1  0  0  0  0
 28 30  1  0  0  0  0
 29 32  1  0  0  0  0
 29 71  1  0  0  0  0
 29 72  1  0  0  0  0
 31 33  1  0  0  0  0
 32 34  1  0  0  0  0
 32 73  1  0  0  0  0
 32 74  1  0  0  0  0
 33 75  1  0  0  0  0
 33 76  1  0  0  0  0
 33 77  1  0  0  0  0
 34 35  2  0  0  0  0
 34 79  1  0  0  0  0
 35 36  1  0  0  0  0
 35 37  1  0  0  0  0
 36 80  1  0  0  0  0
 36 81  1  0  0  0  0
 36 82  1  0  0  0  0
 37 83  1  0  0  0  0
 37 84  1  0  0  0  0
 37 85  1  0  0  0  0
M  END
> <DATABASE_ID>
DB02703

> <DATABASE_NAME>
drugbank

> <ORIGINAL_SOURCE>
PUBCHEM

> <ORIGINAL_SOURCE_URL>
https://pubchem.ncbi.nlm.nih.gov/rest/pug/compound/inchikey/IECPWNUMDGFDKC-MZJAQBGESA-N/SDF?record_type=3d

> <SMILES>
[H][C@@]12C[C@@H](O)[C@@]3([H])[C@@]4(C)CC[C@@H](O)[C@@H](C)[C@]4([H])CC[C@]3(C)[C@@]1(C)C[C@H](OC(C)=O)\C2=C(\CCC=C(C)C)C(O)=O

> <INCHI_IDENTIFIER>
InChI=1S/C31H48O6/c1-17(2)9-8-10-20(28(35)36)26-22-15-24(34)27-29(5)13-12-23(33)18(3)21(29)11-14-30(27,6)31(22,7)16-25(26)37-19(4)32/h9,18,21-25,27,33-34H,8,10-16H2,1-7H3,(H,35,36)/b26-20-/t18-,21-,22-,23+,24+,25-,27-,29-,30-,31-/m0/s1

> <INCHI_KEY>
IECPWNUMDGFDKC-MZJAQBGESA-N

> <FORMULA>
C31H48O6

> <MOLECULAR_WEIGHT>
516.7092

> <EXACT_MASS>
516.345089268

> <JCHEM_ACCEPTOR_COUNT>
5

> <JCHEM_ATOM_COUNT>
85

> <JCHEM_AVERAGE_NEUTRAL_MICROSPECIES_CHARGE>
-0.9971558830783126

> <JCHEM_AVERAGE_POLARIZABILITY>
59.7645621351772

> <JCHEM_BIOAVAILABILITY>
1

> <JCHEM_DONOR_COUNT>
3

> <JCHEM_FORMAL_CHARGE>
0

> <JCHEM_GHOSE_FILTER>
0

> <JCHEM_IUPAC>
2-[(1Z,2S,3aS,3bS,5aS,6S,7R,9aS,9bS,10R,11aR)-2-(acetyloxy)-7,10-dihydroxy-3a,3b,6,9a-tetramethyl-hexadecahydro-1H-cyclopenta[a]phenanthren-1-ylidene]-6-methylhept-5-enoic acid

> <ALOGPS_LOGP>
4.97

> <JCHEM_LOGP>
4.4219138163333325

> <ALOGPS_LOGS>
-5.00

> <JCHEM_MDDR_LIKE_RULE>
1

> <JCHEM_NEUTRAL_CHARGE>
-1

> <JCHEM_NUMBER_OF_RINGS>
4

> <JCHEM_PHYSIOLOGICAL_CHARGE>
-1

> <JCHEM_PKA>
18.892605767976843

> <JCHEM_PKA_STRONGEST_ACIDIC>
4.455184945090332

> <JCHEM_PKA_STRONGEST_BASIC>
-0.20032296332015048

> <JCHEM_POLAR_SURFACE_AREA>
104.06

> <JCHEM_REFRACTIVITY>
144.1233

> <JCHEM_ROTATABLE_BOND_COUNT>
6

> <JCHEM_RULE_OF_FIVE>
0

> <ALOGPS_SOLUBILITY>
5.21e-03 g/l

> <JCHEM_TRADITIONAL_IUPAC>
cefazolin sodium

> <JCHEM_VEBER_RULE>
0

$$$$
124093
  -OEChem-10061700043D

 51 55  0     1  0  0  0  0  0999 V2000
    1.9327    2.2912   -1.0057 F   0  0  0  0  0  0  0  0  0  0  0  0
    0.3869    1.1432   -2.0167 F   0  0  0  0  0  0  0  0  0  0  0  0
    0.2618    1.4481    0.2225 O   0  0  0  0  0  0  0  0  0  0  0  0
   -4.0232   -2.7694   -0.0385 O   0  0  0  0  0  0  0  0  0  0  0  0
   -6.2831   -1.6979   -0.8164 O   0  0  0  0  0  0  0  0  0  0  0  0
   -6.7408    0.2488    0.2933 O   0  0  0  0  0  0  0  0  0  0  0  0
   -2.6057    1.0522    0.0453 N   0  0  0  0  0  0  0  0  0  0  0  0
    6.4869   -0.2645   -1.0860 N   0  0  0  0  0  0  0  0  0  0  0  0
   -2.2248    2.4839    0.0677 C   0  0  0  0  0  0  0  0  0  0  0  0
   -2.8166    3.4140    1.0722 C   0  0  0  0  0  0  0  0  0  0  0  0
   -1.3691    3.0283    1.1612 C   0  0  0  0  0  0  0  0  0  0  0  0
   -1.6677   -0.0175    0.1045 C   0  0  0  0  0  0  0  0  0  0  0  0
   -3.9557    0.7717   -0.0383 C   0  0  0  0  0  0  0  0  0  0  0  0
   -2.1307   -1.3509    0.0770 C   0  0  0  0  0  0  0  0  0  0  0  0
   -0.2819    0.1946    0.1903 C   0  0  0  0  0  0  0  0  0  0  0  0
   -4.4987   -0.4515   -0.0709 C   0  0  0  0  0  0  0  0  0  0  0  0
    0.6079   -0.8818    0.2468 C   0  0  0  0  0  0  0  0  0  0  0  0
   -3.5892   -1.6243   -0.0136 C   0  0  0  0  0  0  0  0  0  0  0  0
    6.2339   -0.0133    0.3541 C   0  0  1  0  0  0  0  0  0  0  0  0
    4.7679   -0.2625    0.5414 C   0  0  0  0  0  0  0  0  0  0  0  0
    4.1581   -0.3635   -0.7093 C   0  0  0  0  0  0  0  0  0  0  0  0
    2.0402   -0.6683    0.3353 C   0  0  0  0  0  0  0  0  0  0  0  0
   -1.2382   -2.4285    0.1337 C   0  0  0  0  0  0  0  0  0  0  0  0
    5.1835   -0.1961   -1.7794 C   0  0  0  0  0  0  0  0  0  0  0  0
    0.1309   -2.1893    0.2186 C   0  0  0  0  0  0  0  0  0  0  0  0
    2.7946   -0.5631   -0.8328 C   0  0  0  0  0  0  0  0  0  0  0  0
    4.0241   -0.3555    1.7054 C   0  0  0  0  0  0  0  0  0  0  0  0
    2.6474   -0.5654    1.5954 C   0  0  0  0  0  0  0  0  0  0  0  0
    7.1259   -0.8894    1.2263 C   0  0  0  0  0  0  0  0  0  0  0  0
   -5.9554   -0.5646   -0.1604 C   0  0  0  0  0  0  0  0  0  0  0  0
    0.5979    2.0413   -1.0233 C   0  0  0  0  0  0  0  0  0  0  0  0
   -2.1226    2.8880   -0.9337 H   0  0  0  0  0  0  0  0  0  0  0  0
   -3.4813    3.0233    1.8329 H   0  0  0  0  0  0  0  0  0  0  0  0
   -3.0507    4.4221    0.7521 H   0  0  0  0  0  0  0  0  0  0  0  0
   -0.6563    3.8144    0.9395 H   0  0  0  0  0  0  0  0  0  0  0  0
   -1.1144    2.4264    2.0268 H   0  0  0  0  0  0  0  0  0  0  0  0
   -4.5793    1.6591   -0.0940 H   0  0  0  0  0  0  0  0  0  0  0  0
    6.4402    1.0438    0.5611 H   0  0  0  0  0  0  0  0  0  0  0  0
   -1.5906   -3.4560    0.1128 H   0  0  0  0  0  0  0  0  0  0  0  0
    5.1114   -0.9860   -2.5335 H   0  0  0  0  0  0  0  0  0  0  0  0
    5.0717    0.7804   -2.2617 H   0  0  0  0  0  0  0  0  0  0  0  0
    0.8118   -3.0363    0.2617 H   0  0  0  0  0  0  0  0  0  0  0  0
    6.8519   -1.2119   -1.1954 H   0  0  0  0  0  0  0  0  0  0  0  0
    2.3393   -0.6378   -1.8154 H   0  0  0  0  0  0  0  0  0  0  0  0
    4.4884   -0.2644    2.6812 H   0  0  0  0  0  0  0  0  0  0  0  0
    2.0542   -0.6419    2.5043 H   0  0  0  0  0  0  0  0  0  0  0  0
    6.9235   -1.9558    1.0722 H   0  0  0  0  0  0  0  0  0  0  0  0
    8.1840   -0.7092    1.0068 H   0  0  0  0  0  0  0  0  0  0  0  0
    6.9674   -0.6753    2.2889 H   0  0  0  0  0  0  0  0  0  0  0  0
    0.0680    2.9722   -1.2293 H   0  0  0  0  0  0  0  0  0  0  0  0
   -7.2544   -1.8096   -0.8966 H   0  0  0  0  0  0  0  0  0  0  0  0
  1 31  1  0  0  0  0
  2 31  1  0  0  0  0
  3 15  1  0  0  0  0
  3 31  1  0  0  0  0
  4 18  2  0  0  0  0
  5 30  1  0  0  0  0
  5 51  1  0  0  0  0
  6 30  2  0  0  0  0
  7  9  1  0  0  0  0
  7 12  1  0  0  0  0
  7 13  1  0  0  0  0
  8 19  1  0  0  0  0
  8 24  1  0  0  0  0
  8 43  1  0  0  0  0
  9 10  1  0  0  0  0
  9 11  1  0  0  0  0
  9 32  1  0  0  0  0
 10 11  1  0  0  0  0
 10 33  1  0  0  0  0
 10 34  1  0  0  0  0
 11 35  1  0  0  0  0
 11 36  1  0  0  0  0
 12 14  2  0  0  0  0
 12 15  1  0  0  0  0
 13 16  2  0  0  0  0
 13 37  1  0  0  0  0
 14 18  1  0  0  0  0
 14 23  1  0  0  0  0
 15 17  2  0  0  0  0
 16 18  1  0  0  0  0
 16 30  1  0  0  0  0
 17 22  1  0  0  0  0
 17 25  1  0  0  0  0
 19 20  1  0  0  0  0
 19 29  1  0  0  0  0
 19 38  1  0  0  0  0
 20 21  2  0  0  0  0
 20 27  1  0  0  0  0
 21 24  1  0  0  0  0
 21 26  1  0  0  0  0
 22 26  2  0  0  0  0
 22 28  1  0  0  0  0
 23 25  2  0  0  0  0
 23 39  1  0  0  0  0
 24 40  1  0  0  0  0
 24 41  1  0  0  0  0
 25 42  1  0  0  0  0
 26 44  1  0  0  0  0
 27 28  2  0  0  0  0
 27 45  1  0  0  0  0
 28 46  1  0  0  0  0
 29 47  1  0  0  0  0
 29 48  1  0  0  0  0
 29 49  1  0  0  0  0
 31 50  1  0  0  0  0
M  END
> <DATABASE_ID>
DB06160

> <DATABASE_NAME>
drugbank

> <ORIGINAL_SOURCE>
PUBCHEM

> <ORIGINAL_SOURCE_URL>
https://pubchem.ncbi.nlm.nih.gov/rest/pug/compound/inchikey/NJDRXTDGYFKORP-LLVKDONJSA-N/SDF?record_type=3d

> <SMILES>
C[C@H]1NCC2=CC(=CC=C12)C1=CC=C2C(=O)C(=CN(C3CC3)C2=C1OC(F)F)C(O)=O

> <INCHI_IDENTIFIER>
InChI=1S/C23H20F2N2O4/c1-11-15-5-2-12(8-13(15)9-26-11)16-6-7-17-19(21(16)31-23(24)25)27(14-3-4-14)10-18(20(17)28)22(29)30/h2,5-8,10-11,14,23,26H,3-4,9H2,1H3,(H,29,30)/t11-/m1/s1

> <INCHI_KEY>
NJDRXTDGYFKORP-LLVKDONJSA-N

> <FORMULA>
C23H20F2N2O4

> <MOLECULAR_WEIGHT>
426.42

> <EXACT_MASS>
426.139113458

> <JCHEM_ACCEPTOR_COUNT>
6

> <JCHEM_ATOM_COUNT>
51

> <JCHEM_AVERAGE_POLARIZABILITY>
42.389143292884185

> <JCHEM_BIOAVAILABILITY>
1

> <JCHEM_DONOR_COUNT>
2

> <JCHEM_FORMAL_CHARGE>
0

> <JCHEM_GHOSE_FILTER>
1

> <JCHEM_IUPAC>
1-cyclopropyl-8-(difluoromethoxy)-7-[(1R)-1-methyl-2,3-dihydro-1H-isoindol-5-yl]-4-oxo-1,4-dihydroquinoline-3-carboxylic acid

> <ALOGPS_LOGP>
1.71

> <JCHEM_LOGP>
1.6222796387144944

> <ALOGPS_LOGS>
-4.26

> <JCHEM_MDDR_LIKE_RULE>
0

> <JCHEM_NUMBER_OF_RINGS>
5

> <JCHEM_PHYSIOLOGICAL_CHARGE>
0

> <JCHEM_PKA_STRONGEST_ACIDIC>
6.0503735569164645

> <JCHEM_PKA_STRONGEST_BASIC>
8.879737479108723

> <JCHEM_POLAR_SURFACE_AREA>
78.87

> <JCHEM_REFRACTIVITY>
110.36869999999999

> <JCHEM_ROTATABLE_BOND_COUNT>
5

> <JCHEM_RULE_OF_FIVE>
1

> <ALOGPS_SOLUBILITY>
2.32e-02 g/l

> <JCHEM_TRADITIONAL_IUPAC>
1-cyclopropyl-8-(difluoromethoxy)-7-[(1R)-1-methyl-2,3-dihydro-1H-isoindol-5-yl]-4-oxoquinoline-3-carboxylic acid

> <JCHEM_VEBER_RULE>
0

$$$$
11993740
  -OEChem-10061700073D

 52 55  0     1  0  0  0  0  0999 V2000
   -0.9962    1.4566   -0.2344 O   0  0  0  0  0  0  0  0  0  0  0  0
    3.3881   -2.6190    0.4030 O   0  0  0  0  0  0  0  0  0  0  0  0
    5.6410   -1.6625   -0.5297 O   0  0  0  0  0  0  0  0  0  0  0  0
    6.0329    0.4734    0.1877 O   0  0  0  0  0  0  0  0  0  0  0  0
    1.8880    1.1092   -0.2837 N   0  0  0  0  0  0  0  0  0  0  0  0
   -2.6732   -0.6352    0.2555 N   0  0  1  0  0  0  0  0  0  0  0  0
   -4.3183    1.8374    0.8164 N   0  0  0  0  0  0  0  0  0  0  0  0
    1.4752    2.5076   -0.5460 C   0  0  0  0  0  0  0  0  0  0  0  0
    2.0251    3.6298    0.2681 C   0  0  0  0  0  0  0  0  0  0  0  0
    0.5849    3.2315    0.4069 C   0  0  0  0  0  0  0  0  0  0  0  0
   -4.8332   -0.6154   -0.9426 C   0  0  1  0  0  0  0  0  0  0  0  0
   -4.5989    0.4947    1.3314 C   0  0  1  0  0  0  0  0  0  0  0  0
   -5.5289   -0.2677    0.3810 C   0  0  0  0  0  0  0  0  0  0  0  0
   -3.5207   -1.3729   -0.6885 C   0  0  0  0  0  0  0  0  0  0  0  0
   -3.2879   -0.2728    1.5419 C   0  0  0  0  0  0  0  0  0  0  0  0
    0.9719    0.0482   -0.0330 C   0  0  0  0  0  0  0  0  0  0  0  0
   -1.2872   -0.8288    0.2362 C   0  0  0  0  0  0  0  0  0  0  0  0
   -0.4195    0.2380   -0.0142 C   0  0  0  0  0  0  0  0  0  0  0  0
    3.2452    0.8517   -0.2879 C   0  0  0  0  0  0  0  0  0  0  0  0
    1.4637   -1.2529    0.2085 C   0  0  0  0  0  0  0  0  0  0  0  0
   -5.7613   -1.4332   -1.8395 C   0  0  0  0  0  0  0  0  0  0  0  0
   -0.7821   -2.1042    0.4725 C   0  0  0  0  0  0  0  0  0  0  0  0
    3.8146   -0.3404   -0.0719 C   0  0  0  0  0  0  0  0  0  0  0  0
    0.5934   -2.3208    0.4595 C   0  0  0  0  0  0  0  0  0  0  0  0
    2.9293   -1.5020    0.1978 C   0  0  0  0  0  0  0  0  0  0  0  0
    5.2750   -0.4321   -0.1123 C   0  0  0  0  0  0  0  0  0  0  0  0
   -1.3206    1.7818   -1.5828 C   0  0  0  0  0  0  0  0  0  0  0  0
    1.3651    2.7066   -1.6070 H   0  0  0  0  0  0  0  0  0  0  0  0
    2.2440    4.5620   -0.2384 H   0  0  0  0  0  0  0  0  0  0  0  0
    2.6821    3.4112    1.1010 H   0  0  0  0  0  0  0  0  0  0  0  0
    0.3249    2.8019    1.3682 H   0  0  0  0  0  0  0  0  0  0  0  0
   -0.1390    3.9419    0.0251 H   0  0  0  0  0  0  0  0  0  0  0  0
   -4.6007    0.3148   -1.4763 H   0  0  0  0  0  0  0  0  0  0  0  0
   -5.1030    0.6108    2.2977 H   0  0  0  0  0  0  0  0  0  0  0  0
   -6.4338    0.3218    0.1858 H   0  0  0  0  0  0  0  0  0  0  0  0
   -5.8602   -1.1907    0.8753 H   0  0  0  0  0  0  0  0  0  0  0  0
   -3.7276   -2.3743   -0.2900 H   0  0  0  0  0  0  0  0  0  0  0  0
   -2.9966   -1.5019   -1.6443 H   0  0  0  0  0  0  0  0  0  0  0  0
   -2.5996    0.3328    2.1466 H   0  0  0  0  0  0  0  0  0  0  0  0
   -3.4849   -1.1894    2.1130 H   0  0  0  0  0  0  0  0  0  0  0  0
    3.8507    1.7268   -0.5050 H   0  0  0  0  0  0  0  0  0  0  0  0
   -5.2779   -1.6571   -2.7963 H   0  0  0  0  0  0  0  0  0  0  0  0
   -6.0359   -2.3831   -1.3685 H   0  0  0  0  0  0  0  0  0  0  0  0
   -6.6830   -0.8808   -2.0505 H   0  0  0  0  0  0  0  0  0  0  0  0
   -1.4452   -2.9415    0.6748 H   0  0  0  0  0  0  0  0  0  0  0  0
    0.9680   -3.3233    0.6474 H   0  0  0  0  0  0  0  0  0  0  0  0
   -3.7674    1.7753   -0.0381 H   0  0  0  0  0  0  0  0  0  0  0  0
   -3.7337    2.3405    1.4833 H   0  0  0  0  0  0  0  0  0  0  0  0
   -2.2464    1.2775   -1.8745 H   0  0  0  0  0  0  0  0  0  0  0  0
   -0.5266    1.4914   -2.2784 H   0  0  0  0  0  0  0  0  0  0  0  0
   -1.4863    2.8597   -1.6590 H   0  0  0  0  0  0  0  0  0  0  0  0
    6.6159   -1.7632   -0.5700 H   0  0  0  0  0  0  0  0  0  0  0  0
  1 18  1  0  0  0  0
  1 27  1  0  0  0  0
  2 25  2  0  0  0  0
  3 26  1  0  0  0  0
  3 52  1  0  0  0  0
  4 26  2  0  0  0  0
  5  8  1  0  0  0  0
  5 16  1  0  0  0  0
  5 19  1  0  0  0  0
  6 14  1  0  0  0  0
  6 15  1  0  0  0  0
  6 17  1  0  0  0  0
  7 12  1  0  0  0  0
  7 47  1  0  0  0  0
  7 48  1  0  0  0  0
  8  9  1  0  0  0  0
  8 10  1  0  0  0  0
  8 28  1  0  0  0  0
  9 10  1  0  0  0  0
  9 29  1  0  0  0  0
  9 30  1  0  0  0  0
 10 31  1  0  0  0  0
 10 32  1  0  0  0  0
 11 13  1  0  0  0  0
 11 14  1  0  0  0  0
 11 21  1  0  0  0  0
 11 33  1  0  0  0  0
 12 13  1  0  0  0  0
 12 15  1  0  0  0  0
 12 34  1  0  0  0  0
 13 35  1  0  0  0  0
 13 36  1  0  0  0  0
 14 37  1  0  0  0  0
 14 38  1  0  0  0  0
 15 39  1  0  0  0  0
 15 40  1  0  0  0  0
 16 18  1  0  0  0  0
 16 20  2  0  0  0  0
 17 18  2  0  0  0  0
 17 22  1  0  0  0  0
 19 23  2  0  0  0  0
 19 41  1  0  0  0  0
 20 24  1  0  0  0  0
 20 25  1  0  0  0  0
 21 42  1  0  0  0  0
 21 43  1  0  0  0  0
 21 44  1  0  0  0  0
 22 24  2  0  0  0  0
 22 45  1  0  0  0  0
 23 25  1  0  0  0  0
 23 26  1  0  0  0  0
 24 46  1  0  0  0  0
 27 49  1  0  0  0  0
 27 50  1  0  0  0  0
 27 51  1  0  0  0  0
M  END
> <DATABASE_ID>
DB06600

> <DATABASE_NAME>
drugbank

> <ORIGINAL_SOURCE>
PUBCHEM

> <ORIGINAL_SOURCE_URL>
https://pubchem.ncbi.nlm.nih.gov/rest/pug/compound/inchikey/AVPQPGFLVZTJOR-RYUDHWBXSA-N/SDF?record_type=3d

> <SMILES>
COC1=C2N(C=C(C(O)=O)C(=O)C2=CC=C1N1C[C@@H](C)C[C@H](N)C1)C1CC1

> <INCHI_IDENTIFIER>
InChI=1S/C20H25N3O4/c1-11-7-12(21)9-22(8-11)16-6-5-14-17(19(16)27-2)23(13-3-4-13)10-15(18(14)24)20(25)26/h5-6,10-13H,3-4,7-9,21H2,1-2H3,(H,25,26)/t11-,12-/m0/s1

> <INCHI_KEY>
AVPQPGFLVZTJOR-RYUDHWBXSA-N

> <FORMULA>
C20H25N3O4

> <MOLECULAR_WEIGHT>
371.437

> <EXACT_MASS>
371.184506297

> <JCHEM_ACCEPTOR_COUNT>
7

> <JCHEM_ATOM_COUNT>
52

> <JCHEM_AVERAGE_POLARIZABILITY>
40.05477893071219

> <JCHEM_BIOAVAILABILITY>
1

> <JCHEM_DONOR_COUNT>
2

> <JCHEM_FORMAL_CHARGE>
0

> <JCHEM_GHOSE_FILTER>
0

> <JCHEM_IUPAC>
7-[(3S,5S)-3-amino-5-methylpiperidin-1-yl]-1-cyclopropyl-8-methoxy-4-oxo-1,4-dihydroquinoline-3-carboxylic acid

> <ALOGPS_LOGP>
0.32

> <JCHEM_LOGP>
-0.441643983859724

> <ALOGPS_LOGS>
-2.91

> <JCHEM_MDDR_LIKE_RULE>
0

> <JCHEM_NUMBER_OF_RINGS>
4

> <JCHEM_PHYSIOLOGICAL_CHARGE>
0

> <JCHEM_PKA_STRONGEST_ACIDIC>
5.726191934196321

> <JCHEM_PKA_STRONGEST_BASIC>
9.658725657122702

> <JCHEM_POLAR_SURFACE_AREA>
96.1

> <JCHEM_REFRACTIVITY>
103.06339999999996

> <JCHEM_ROTATABLE_BOND_COUNT>
4

> <JCHEM_RULE_OF_FIVE>
1

> <ALOGPS_SOLUBILITY>
4.53e-01 g/l

> <JCHEM_TRADITIONAL_IUPAC>
nemonoxacin

> <JCHEM_VEBER_RULE>
0

$$$$
5335
  -OEChem-02111911353D

 36 38  0     0  0  0  0  0  0999 V2000
   -0.2991   -2.1848    0.3841 S   0  0  0  0  0  0  0  0  0  0  0  0
   -0.7039   -3.5281    0.0135 O   0  0  0  0  0  0  0  0  0  0  0  0
    0.2792   -1.9417    1.6917 O   0  0  0  0  0  0  0  0  0  0  0  0
    2.5404    0.0561   -0.1781 N   0  0  0  0  0  0  0  0  0  0  0  0
    0.7244   -1.5721   -0.8441 N   0  0  0  0  0  0  0  0  0  0  0  0
    3.8574    0.0758    0.1164 N   0  0  0  0  0  0  0  0  0  0  0  0
   -5.1073    1.2731   -0.1458 N   0  0  0  0  0  0  0  0  0  0  0  0
    2.0779   -1.1978   -0.4831 C   0  0  0  0  0  0  0  0  0  0  0  0
   -1.7307   -1.1560    0.2267 C   0  0  0  0  0  0  0  0  0  0  0  0
    1.7982    1.2227   -0.1542 C   0  0  0  0  0  0  0  0  0  0  0  0
    3.1575   -2.0408   -0.3809 C   0  0  0  0  0  0  0  0  0  0  0  0
   -2.7515   -1.5475   -0.6205 C   0  0  0  0  0  0  0  0  0  0  0  0
   -1.7988    0.0190    0.9529 C   0  0  0  0  0  0  0  0  0  0  0  0
    4.2252   -1.2021   -0.0089 C   0  0  0  0  0  0  0  0  0  0  0  0
   -3.8791   -0.7360   -0.7456 C   0  0  0  0  0  0  0  0  0  0  0  0
   -2.9266    0.8304    0.8280 C   0  0  0  0  0  0  0  0  0  0  0  0
    0.6989    1.3675   -1.0006 C   0  0  0  0  0  0  0  0  0  0  0  0
    2.1496    2.2552    0.7154 C   0  0  0  0  0  0  0  0  0  0  0  0
   -3.9667    0.4529   -0.0213 C   0  0  0  0  0  0  0  0  0  0  0  0
   -0.0489    2.5448   -0.9772 C   0  0  0  0  0  0  0  0  0  0  0  0
    1.4016    3.4323    0.7389 C   0  0  0  0  0  0  0  0  0  0  0  0
    0.3023    3.5772   -0.1074 C   0  0  0  0  0  0  0  0  0  0  0  0
    0.7146   -2.1407   -1.7022 H   0  0  0  0  0  0  0  0  0  0  0  0
    3.1728   -3.1077   -0.5499 H   0  0  0  0  0  0  0  0  0  0  0  0
   -2.6990   -2.4644   -1.1990 H   0  0  0  0  0  0  0  0  0  0  0  0
   -0.9982    0.3299    1.6169 H   0  0  0  0  0  0  0  0  0  0  0  0
    5.2557   -1.4688    0.1761 H   0  0  0  0  0  0  0  0  0  0  0  0
   -4.6823   -1.0400   -1.4119 H   0  0  0  0  0  0  0  0  0  0  0  0
   -2.9821    1.7550    1.3968 H   0  0  0  0  0  0  0  0  0  0  0  0
    0.4189    0.6274   -1.7422 H   0  0  0  0  0  0  0  0  0  0  0  0
    2.9941    2.1692    1.3947 H   0  0  0  0  0  0  0  0  0  0  0  0
   -0.8968    2.6635   -1.6456 H   0  0  0  0  0  0  0  0  0  0  0  0
    1.6736    4.2356    1.4174 H   0  0  0  0  0  0  0  0  0  0  0  0
   -0.2789    4.4944   -0.0907 H   0  0  0  0  0  0  0  0  0  0  0  0
   -5.1694    2.1366    0.3768 H   0  0  0  0  0  0  0  0  0  0  0  0
   -5.8608    1.0018   -0.7634 H   0  0  0  0  0  0  0  0  0  0  0  0
  1  2  2  0  0  0  0
  1  3  2  0  0  0  0
  1  5  1  0  0  0  0
  1  9  1  0  0  0  0
  4  6  1  0  0  0  0
  4  8  1  0  0  0  0
  4 10  1  0  0  0  0
  5  8  1  0  0  0  0
  5 23  1  0  0  0  0
  6 14  2  0  0  0  0
  7 19  1  0  0  0  0
  7 35  1  0  0  0  0
  7 36  1  0  0  0  0
  8 11  2  0  0  0  0
  9 12  2  0  0  0  0
  9 13  1  0  0  0  0
 10 17  2  0  0  0  0
 10 18  1  0  0  0  0
 11 14  1  0  0  0  0
 11 24  1  0  0  0  0
 12 15  1  0  0  0  0
 12 25  1  0  0  0  0
 13 16  2  0  0  0  0
 13 26  1  0  0  0  0
 14 27  1  0  0  0  0
 15 19  2  0  0  0  0
 15 28  1  0  0  0  0
 16 19  1  0  0  0  0
 16 29  1  0  0  0  0
 17 20  1  0  0  0  0
 17 30  1  0  0  0  0
 18 21  2  0  0  0  0
 18 31  1  0  0  0  0
 20 22  2  0  0  0  0
 20 32  1  0  0  0  0
 21 22  1  0  0  0  0
 21 33  1  0  0  0  0
 22 34  1  0  0  0  0
M  END
> <DATABASE_ID>
DB06729

> <DATABASE_NAME>
drugbank

> <ORIGINAL_SOURCE>
PUBCHEM

> <ORIGINAL_SOURCE_URL>
https://pubchem.ncbi.nlm.nih.gov/rest/pug/compound/inchikey/QWCJHSGMANYXCW-UHFFFAOYSA-N/SDF?record_type=3d

> <SMILES>
NC1=CC=C(C=C1)S(=O)(=O)NC1=CC=NN1C1=CC=CC=C1

> <INCHI_IDENTIFIER>
InChI=1S/C15H14N4O2S/c16-12-6-8-14(9-7-12)22(20,21)18-15-10-11-17-19(15)13-4-2-1-3-5-13/h1-11,18H,16H2

> <INCHI_KEY>
QWCJHSGMANYXCW-UHFFFAOYSA-N

> <FORMULA>
C15H14N4O2S

> <MOLECULAR_WEIGHT>
314.362

> <EXACT_MASS>
314.083746402

> <JCHEM_ACCEPTOR_COUNT>
4

> <JCHEM_ATOM_COUNT>
36

> <JCHEM_AVERAGE_POLARIZABILITY>
31.817811275190664

> <JCHEM_BIOAVAILABILITY>
1

> <JCHEM_DONOR_COUNT>
2

> <JCHEM_FORMAL_CHARGE>
0

> <JCHEM_GHOSE_FILTER>
1

> <JCHEM_IUPAC>
4-amino-N-(1-phenyl-1H-pyrazol-5-yl)benzene-1-sulfonamide

> <ALOGPS_LOGP>
1.59

> <JCHEM_LOGP>
1.8070946609999998

> <ALOGPS_LOGS>
-3.05

> <JCHEM_MDDR_LIKE_RULE>
0

> <JCHEM_NUMBER_OF_RINGS>
3

> <JCHEM_PHYSIOLOGICAL_CHARGE>
-1

> <JCHEM_PKA_STRONGEST_ACIDIC>
6.820531606896829

> <JCHEM_PKA_STRONGEST_BASIC>
2.43903415725443

> <JCHEM_POLAR_SURFACE_AREA>
90.01

> <JCHEM_REFRACTIVITY>
85.20560000000003

> <JCHEM_ROTATABLE_BOND_COUNT>
3

> <JCHEM_RULE_OF_FIVE>
1

> <ALOGPS_SOLUBILITY>
2.78e-01 g/l

> <JCHEM_TRADITIONAL_IUPAC>
bosutinib monohydrate

> <JCHEM_VEBER_RULE>
0

$$$$
27200
  -OEChem-10051721243D

 36 36  0     1  0  0  0  0  0999 V2000
   -5.9637    1.9100    0.1616 Cl  0  0  0  0  0  0  0  0  0  0  0  0
   -6.4145   -0.8522   -0.6741 Cl  0  0  0  0  0  0  0  0  0  0  0  0
    5.1701    0.2451   -0.4055 S   0  0  0  0  0  0  0  0  0  0  0  0
   -0.9955    1.2945    1.6705 O   0  0  0  0  0  0  0  0  0  0  0  0
   -1.5512   -2.7081    0.1934 O   0  0  0  0  0  0  0  0  0  0  0  0
    5.4337    1.5561   -0.9813 O   0  0  0  0  0  0  0  0  0  0  0  0
    5.9676   -0.2235    0.7198 O   0  0  0  0  0  0  0  0  0  0  0  0
   -3.8432    0.5680   -1.6550 O   0  0  0  0  0  0  0  0  0  0  0  0
   -2.9821   -0.1838    0.3619 N   0  0  0  0  0  0  0  0  0  0  0  0
   -1.6030   -0.2786   -0.0778 C   0  0  1  0  0  0  0  0  0  0  0  0
   -0.6599    0.0222    1.1070 C   0  0  1  0  0  0  0  0  0  0  0  0
    0.8026    0.0778    0.7278 C   0  0  0  0  0  0  0  0  0  0  0  0
   -1.3709   -1.6451   -0.7335 C   0  0  0  0  0  0  0  0  0  0  0  0
    1.7037   -0.7457    1.3815 C   0  0  0  0  0  0  0  0  0  0  0  0
    1.2112    0.9509   -0.2664 C   0  0  0  0  0  0  0  0  0  0  0  0
    3.4812    0.1794    0.0319 C   0  0  0  0  0  0  0  0  0  0  0  0
    3.0528   -0.6946    1.0310 C   0  0  0  0  0  0  0  0  0  0  0  0
    2.5604    1.0020   -0.6169 C   0  0  0  0  0  0  0  0  0  0  0  0
   -3.9953    0.2379   -0.4797 C   0  0  0  0  0  0  0  0  0  0  0  0
    5.3389   -0.9639   -1.6990 C   0  0  0  0  0  0  0  0  0  0  0  0
   -5.3429    0.2518    0.2030 C   0  0  0  0  0  0  0  0  0  0  0  0
   -1.4739    0.4896   -0.8500 H   0  0  0  0  0  0  0  0  0  0  0  0
   -0.8169   -0.7175    1.9021 H   0  0  0  0  0  0  0  0  0  0  0  0
   -0.3580   -1.7152   -1.1426 H   0  0  0  0  0  0  0  0  0  0  0  0
   -2.0757   -1.7990   -1.5582 H   0  0  0  0  0  0  0  0  0  0  0  0
   -3.2082   -0.5102    1.2969 H   0  0  0  0  0  0  0  0  0  0  0  0
    1.3818   -1.4318    2.1595 H   0  0  0  0  0  0  0  0  0  0  0  0
    0.5118    1.6074   -0.7748 H   0  0  0  0  0  0  0  0  0  0  0  0
    3.7518   -1.3487    1.5445 H   0  0  0  0  0  0  0  0  0  0  0  0
    2.8707    1.6872   -1.4007 H   0  0  0  0  0  0  0  0  0  0  0  0
   -1.9373    1.2681    1.9107 H   0  0  0  0  0  0  0  0  0  0  0  0
    5.0656   -1.9452   -1.3065 H   0  0  0  0  0  0  0  0  0  0  0  0
    4.6916   -0.6847   -2.5325 H   0  0  0  0  0  0  0  0  0  0  0  0
    6.3817   -0.9697   -2.0234 H   0  0  0  0  0  0  0  0  0  0  0  0
   -1.3878   -3.5373   -0.2876 H   0  0  0  0  0  0  0  0  0  0  0  0
   -5.2918   -0.0714    1.2457 H   0  0  0  0  0  0  0  0  0  0  0  0
  1 21  1  0  0  0  0
  2 21  1  0  0  0  0
  3  6  2  0  0  0  0
  3  7  2  0  0  0  0
  3 16  1  0  0  0  0
  3 20  1  0  0  0  0
  4 11  1  0  0  0  0
  4 31  1  0  0  0  0
  5 13  1  0  0  0  0
  5 35  1  0  0  0  0
  8 19  2  0  0  0  0
  9 10  1  0  0  0  0
  9 19  1  0  0  0  0
  9 26  1  0  0  0  0
 10 11  1  0  0  0  0
 10 13  1  0  0  0  0
 10 22  1  0  0  0  0
 11 12  1  0  0  0  0
 11 23  1  0  0  0  0
 12 14  2  0  0  0  0
 12 15  1  0  0  0  0
 13 24  1  0  0  0  0
 13 25  1  0  0  0  0
 14 17  1  0  0  0  0
 14 27  1  0  0  0  0
 15 18  2  0  0  0  0
 15 28  1  0  0  0  0
 16 17  2  0  0  0  0
 16 18  1  0  0  0  0
 17 29  1  0  0  0  0
 18 30  1  0  0  0  0
 19 21  1  0  0  0  0
 20 32  1  0  0  0  0
 20 33  1  0  0  0  0
 20 34  1  0  0  0  0
 21 36  1  0  0  0  0
M  END
> <DATABASE_ID>
DB08621

> <DATABASE_NAME>
drugbank

> <ORIGINAL_SOURCE>
PUBCHEM

> <ORIGINAL_SOURCE_URL>
https://pubchem.ncbi.nlm.nih.gov/rest/pug/compound/inchikey/OTVAEFIXJLOWRX-NXEZZACHSA-N/SDF?record_type=3d

> <SMILES>
[H][C@](CO)(NC(=O)C(Cl)Cl)[C@]([H])(O)C1=CC=C(C=C1)S(C)(=O)=O

> <INCHI_IDENTIFIER>
InChI=1S/C12H15Cl2NO5S/c1-21(19,20)8-4-2-7(3-5-8)10(17)9(6-16)15-12(18)11(13)14/h2-5,9-11,16-17H,6H2,1H3,(H,15,18)/t9-,10-/m1/s1

> <INCHI_KEY>
OTVAEFIXJLOWRX-NXEZZACHSA-N

> <FORMULA>
C12H15Cl2NO5S

> <MOLECULAR_WEIGHT>
356.222

> <EXACT_MASS>
355.004798699

> <JCHEM_ACCEPTOR_COUNT>
5

> <JCHEM_AVERAGE_POLARIZABILITY>
32.29455248170721

> <JCHEM_BIOAVAILABILITY>
1

> <JCHEM_DONOR_COUNT>
3

> <JCHEM_FORMAL_CHARGE>
0

> <JCHEM_GHOSE_FILTER>
1

> <JCHEM_IUPAC>
2,2-dichloro-N-[(1R,2R)-1,3-dihydroxy-1-(4-methanesulfonylphenyl)propan-2-yl]acetamide

> <ALOGPS_LOGP>
0.33

> <JCHEM_LOGP>
-0.22097215899999947

> <ALOGPS_LOGS>
-2.20

> <JCHEM_MDDR_LIKE_RULE>
0

> <JCHEM_NUMBER_OF_RINGS>
1

> <JCHEM_PHYSIOLOGICAL_CHARGE>
0

> <JCHEM_PKA>
13.596569191253863

> <JCHEM_PKA_STRONGEST_ACIDIC>
7.64991491229964

> <JCHEM_PKA_STRONGEST_BASIC>
-2.794850218301497

> <JCHEM_POLAR_SURFACE_AREA>
103.69999999999999

> <JCHEM_REFRACTIVITY>
79.87960000000001

> <JCHEM_ROTATABLE_BOND_COUNT>
6

> <JCHEM_RULE_OF_FIVE>
1

> <ALOGPS_SOLUBILITY>
2.27e+00 g/l

> <JCHEM_TRADITIONAL_IUPAC>
thiamphenicol

> <JCHEM_VEBER_RULE>
0

$$$$
3374
  -OEChem-10051722003D

 31 33  0     1  0  0  0  0  0999 V2000
   -3.2560    3.0859   -0.2159 F   0  0  0  0  0  0  0  0  0  0  0  0
    1.7336    2.3970   -0.1490 O   0  0  0  0  0  0  0  0  0  0  0  0
    3.9855    1.2594    0.5925 O   0  0  0  0  0  0  0  0  0  0  0  0
    4.2703   -0.7833   -0.3957 O   0  0  0  0  0  0  0  0  0  0  0  0
    0.1203   -1.3372    0.1508 N   0  0  0  0  0  0  0  0  0  0  0  0
   -0.4536   -2.6948    0.1368 C   0  0  1  0  0  0  0  0  0  0  0  0
   -1.8028   -2.7296    0.8591 C   0  0  0  0  0  0  0  0  0  0  0  0
   -2.7894   -1.7382    0.2572 C   0  0  0  0  0  0  0  0  0  0  0  0
   -0.7567   -0.2302    0.0719 C   0  0  0  0  0  0  0  0  0  0  0  0
   -2.1583   -0.3787    0.1174 C   0  0  0  0  0  0  0  0  0  0  0  0
   -0.2294    1.0756   -0.0403 C   0  0  0  0  0  0  0  0  0  0  0  0
   -0.5389   -3.2140   -1.3017 C   0  0  0  0  0  0  0  0  0  0  0  0
    1.4872   -1.1208    0.1348 C   0  0  0  0  0  0  0  0  0  0  0  0
   -2.9913    0.7456    0.0061 C   0  0  0  0  0  0  0  0  0  0  0  0
    2.0951    0.0676    0.0455 C   0  0  0  0  0  0  0  0  0  0  0  0
    1.2433    1.2786   -0.0565 C   0  0  0  0  0  0  0  0  0  0  0  0
   -1.0681    2.1918   -0.1361 C   0  0  0  0  0  0  0  0  0  0  0  0
   -2.4485    2.0219   -0.1186 C   0  0  0  0  0  0  0  0  0  0  0  0
    3.5579    0.1034    0.0416 C   0  0  0  0  0  0  0  0  0  0  0  0
    0.2160   -3.3693    0.6881 H   0  0  0  0  0  0  0  0  0  0  0  0
   -1.6451   -2.4813    1.9177 H   0  0  0  0  0  0  0  0  0  0  0  0
   -2.2285   -3.7396    0.8324 H   0  0  0  0  0  0  0  0  0  0  0  0
   -3.6706   -1.6802    0.9072 H   0  0  0  0  0  0  0  0  0  0  0  0
   -3.1273   -2.0782   -0.7284 H   0  0  0  0  0  0  0  0  0  0  0  0
    0.4605   -3.2870   -1.7450 H   0  0  0  0  0  0  0  0  0  0  0  0
   -0.9897   -4.2114   -1.3285 H   0  0  0  0  0  0  0  0  0  0  0  0
   -1.1285   -2.5537   -1.9459 H   0  0  0  0  0  0  0  0  0  0  0  0
    2.0546   -2.0439    0.2019 H   0  0  0  0  0  0  0  0  0  0  0  0
   -4.0723    0.6299    0.0233 H   0  0  0  0  0  0  0  0  0  0  0  0
   -0.6651    3.1966   -0.2269 H   0  0  0  0  0  0  0  0  0  0  0  0
    4.9645    1.3204    0.6077 H   0  0  0  0  0  0  0  0  0  0  0  0
  1 18  1  0  0  0  0
  2 16  2  0  0  0  0
  3 19  1  0  0  0  0
  3 31  1  0  0  0  0
  4 19  2  0  0  0  0
  5  6  1  0  0  0  0
  5  9  1  0  0  0  0
  5 13  1  0  0  0  0
  6  7  1  0  0  0  0
  6 12  1  0  0  0  0
  6 20  1  0  0  0  0
  7  8  1  0  0  0  0
  7 21  1  0  0  0  0
  7 22  1  0  0  0  0
  8 10  1  0  0  0  0
  8 23  1  0  0  0  0
  8 24  1  0  0  0  0
  9 10  2  0  0  0  0
  9 11  1  0  0  0  0
 10 14  1  0  0  0  0
 11 16  1  0  0  0  0
 11 17  2  0  0  0  0
 12 25  1  0  0  0  0
 12 26  1  0  0  0  0
 12 27  1  0  0  0  0
 13 15  2  0  0  0  0
 13 28  1  0  0  0  0
 14 18  2  0  0  0  0
 14 29  1  0  0  0  0
 15 16  1  0  0  0  0
 15 19  1  0  0  0  0
 17 18  1  0  0  0  0
 17 30  1  0  0  0  0
M  END
> <DATABASE_ID>
DB08972

> <DATABASE_NAME>
drugbank

> <ORIGINAL_SOURCE>
PUBCHEM

> <ORIGINAL_SOURCE_URL>
https://pubchem.ncbi.nlm.nih.gov/rest/pug/compound/inchikey/DPSPPJIUMHPXMA-UHFFFAOYSA-N/SDF?record_type=3d

> <SMILES>
CC1CCC2=CC(F)=CC3=C2N1C=C(C(O)=O)C3=O

> <INCHI_IDENTIFIER>
InChI=1S/C14H12FNO3/c1-7-2-3-8-4-9(15)5-10-12(8)16(7)6-11(13(10)17)14(18)19/h4-7H,2-3H2,1H3,(H,18,19)

> <INCHI_KEY>
DPSPPJIUMHPXMA-UHFFFAOYSA-N

> <FORMULA>
C14H12FNO3

> <MOLECULAR_WEIGHT>
261.2484

> <EXACT_MASS>
261.08012146

> <JCHEM_ACCEPTOR_COUNT>
4

> <JCHEM_AVERAGE_POLARIZABILITY>
25.246669797951256

> <JCHEM_BIOAVAILABILITY>
1

> <JCHEM_DONOR_COUNT>
1

> <JCHEM_FORMAL_CHARGE>
0

> <JCHEM_GHOSE_FILTER>
1

> <JCHEM_IUPAC>
7-fluoro-12-methyl-4-oxo-1-azatricyclo[7.3.1.0⁵,¹³]trideca-2,5(13),6,8-tetraene-3-carboxylic acid

> <ALOGPS_LOGP>
1.62

> <JCHEM_LOGP>
2.416839571

> <ALOGPS_LOGS>
-2.32

> <JCHEM_MDDR_LIKE_RULE>
0

> <JCHEM_NUMBER_OF_RINGS>
3

> <JCHEM_PHYSIOLOGICAL_CHARGE>
-1

> <JCHEM_PKA_STRONGEST_ACIDIC>
6.004770867103982

> <JCHEM_PKA_STRONGEST_BASIC>
-4.310946343966191

> <JCHEM_POLAR_SURFACE_AREA>
57.61

> <JCHEM_REFRACTIVITY>
67.8736

> <JCHEM_ROTATABLE_BOND_COUNT>
1

> <JCHEM_RULE_OF_FIVE>
1

> <ALOGPS_SOLUBILITY>
1.24e+00 g/l

> <JCHEM_TRADITIONAL_IUPAC>
flumequine

> <JCHEM_VEBER_RULE>
0

$$$$

  Mrv1909 01232000132D          

 35 38  0  0  0  0            999 V2000
   -3.5775   -0.2040    0.0000 C   0  0  0  0  0  0  0  0  0  0  0  0
   -3.5775    0.6210    0.0000 C   0  0  0  0  0  0  0  0  0  0  0  0
   -2.8631    1.0333    0.0000 C   0  0  0  0  0  0  0  0  0  0  0  0
   -2.1486    0.6210    0.0000 C   0  0  0  0  0  0  0  0  0  0  0  0
   -2.1486   -0.2040    0.0000 C   0  0  0  0  0  0  0  0  0  0  0  0
   -2.8631   -0.6165    0.0000 C   0  0  0  0  0  0  0  0  0  0  0  0
   -1.4341    1.0333    0.0000 C   0  0  0  0  0  0  0  0  0  0  0  0
   -0.7197    0.6210    0.0000 C   0  0  0  0  0  0  0  0  0  0  0  0
   -0.7197   -0.2040    0.0000 C   0  0  1  0  0  0  0  0  0  0  0  0
   -1.4341   -0.6165    0.0000 C   0  0  1  0  0  0  0  0  0  0  0  0
   -0.0051    1.0333    0.0000 C   0  0  0  0  0  0  0  0  0  0  0  0
    0.7093    0.6210    0.0000 C   0  0  1  0  0  0  0  0  0  0  0  0
    0.7093   -0.2040    0.0000 C   0  0  1  0  0  0  0  0  0  0  0  0
   -0.0051   -0.6165    0.0000 C   0  0  0  0  0  0  0  0  0  0  0  0
    1.4237    1.0333    0.0000 C   0  0  0  0  0  0  0  0  0  0  0  0
    2.1382    0.6210    0.0000 C   0  0  0  0  0  0  0  0  0  0  0  0
    2.1382   -0.2040    0.0000 C   0  0  0  0  0  0  0  0  0  0  0  0
    1.4237   -0.6165    0.0000 C   0  0  1  0  0  0  0  0  0  0  0  0
   -2.8631   -1.4414    0.0000 Cl  0  0  0  0  0  0  0  0  0  0  0  0
   -2.8631    1.8583    0.0000 O   0  0  0  0  0  0  0  0  0  0  0  0
   -1.4341    1.8584    0.0000 O   0  0  0  0  0  0  0  0  0  0  0  0
   -0.0051    1.8583    0.0000 O   0  0  0  0  0  0  0  0  0  0  0  0
    1.4237    1.8584    0.0000 O   0  0  0  0  0  0  0  0  0  0  0  0
    2.8660    1.0412    0.0000 C   0  0  0  0  0  0  0  0  0  0  0  0
    2.8660   -0.6244    0.0000 O   0  0  0  0  0  0  0  0  0  0  0  0
    3.5775    0.6307    0.0000 N   0  0  0  0  0  0  0  0  0  0  0  0
    2.8658    1.8584    0.0000 O   0  0  0  0  0  0  0  0  0  0  0  0
   -0.7197   -0.8302    0.0000 H   0  0  0  0  0  0  0  0  0  0  0  0
    0.7093   -0.8302    0.0000 H   0  0  0  0  0  0  0  0  0  0  0  0
    1.4237   -1.4415    0.0000 N   0  0  0  0  0  0  0  0  0  0  0  0
    0.7093    1.4459    0.0000 O   0  0  0  0  0  0  0  0  0  0  0  0
    0.7017   -1.8584    0.0000 C   0  0  0  0  0  0  0  0  0  0  0  0
    2.1307   -1.8496    0.0000 C   0  0  0  0  0  0  0  0  0  0  0  0
   -1.0215   -1.3310    0.0000 C   0  0  0  0  0  0  0  0  0  0  0  0
   -1.8465   -1.3310    0.0000 O   0  0  0  0  0  0  0  0  0  0  0  0
  1  2  2  0  0  0  0
  2  3  1  0  0  0  0
  3  4  2  0  0  0  0
  4  5  1  0  0  0  0
  5  6  2  0  0  0  0
  1  6  1  0  0  0  0
  4  7  1  0  0  0  0
  7  8  1  0  0  0  0
  8  9  1  0  0  0  0
  9 10  1  0  0  0  0
  5 10  1  0  0  0  0
  8 11  2  0  0  0  0
 11 12  1  0  0  0  0
 12 13  1  0  0  0  0
 13 14  1  0  0  0  0
  9 14  1  0  0  0  0
 12 15  1  0  0  0  0
 15 16  1  0  0  0  0
 16 17  2  0  0  0  0
 17 18  1  0  0  0  0
 13 18  1  0  0  0  0
  6 19  1  0  0  0  0
  3 20  1  0  0  0  0
  7 21  2  0  0  0  0
 11 22  1  0  0  0  0
 15 23  2  0  0  0  0
 16 24  1  0  0  0  0
 17 25  1  0  0  0  0
 24 26  1  0  0  0  0
 24 27  2  0  0  0  0
  9 28  1  1  0  0  0
 13 29  1  1  0  0  0
 18 30  1  1  0  0  0
 12 31  1  1  0  0  0
 30 32  1  0  0  0  0
 30 33  1  0  0  0  0
 10 34  1  1  0  0  0
 10 35  1  6  0  0  0
M  END
> <DATABASE_ID>
DB09093

> <DATABASE_NAME>
drugbank

> <SMILES>
[H][C@@]12C[C@@]3([H])C(=C(O)[C@]1(O)C(=O)C(C(N)=O)=C(O)[C@H]2N(C)C)C(=O)C1=C(O)C=CC(Cl)=C1[C@@]3(C)O

> <INCHI_IDENTIFIER>
InChI=1S/C22H23ClN2O8/c1-21(32)7-6-8-15(25(2)3)17(28)13(20(24)31)19(30)22(8,33)18(29)11(7)16(27)12-10(26)5-4-9(23)14(12)21/h4-5,7-8,15,26,28-29,32-33H,6H2,1-3H3,(H2,24,31)/t7-,8-,15-,21-,22-/m0/s1

> <INCHI_KEY>
CYDMQBQPVICBEU-XRNKAMNCSA-N

> <FORMULA>
C22H23ClN2O8

> <MOLECULAR_WEIGHT>
478.88

> <EXACT_MASS>
478.114293429

> <JCHEM_ACCEPTOR_COUNT>
9

> <JCHEM_ATOM_COUNT>
56

> <JCHEM_AVERAGE_NEUTRAL_MICROSPECIES_CHARGE>
1.0417979757622962

> <JCHEM_AVERAGE_POLARIZABILITY>
45.60867277116377

> <JCHEM_BIOAVAILABILITY>
1

> <JCHEM_DONOR_COUNT>
6

> <JCHEM_FORMAL_CHARGE>
0

> <JCHEM_GHOSE_FILTER>
0

> <JCHEM_IUPAC>
(4S,4aS,5aS,6S,12aS)-7-chloro-4-(dimethylamino)-3,6,10,12,12a-pentahydroxy-6-methyl-1,11-dioxo-1,4,4a,5,5a,6,11,12a-octahydrotetracene-2-carboxamide

> <ALOGPS_LOGP>
-0.13

> <JCHEM_LOGP>
-2.8981170487198917

> <ALOGPS_LOGS>
-3.27

> <JCHEM_MDDR_LIKE_RULE>
0

> <JCHEM_NEUTRAL_CHARGE>
-1

> <JCHEM_NUMBER_OF_RINGS>
4

> <JCHEM_PHYSIOLOGICAL_CHARGE>
-1

> <JCHEM_PKA>
7.011157126883931

> <JCHEM_PKA_STRONGEST_ACIDIC>
2.9854296039033854

> <JCHEM_PKA_STRONGEST_BASIC>
9.043365094975377

> <JCHEM_POLAR_SURFACE_AREA>
181.61999999999998

> <JCHEM_REFRACTIVITY>
118.99309999999996

> <JCHEM_ROTATABLE_BOND_COUNT>
2

> <JCHEM_RULE_OF_FIVE>
0

> <ALOGPS_SOLUBILITY>
2.59e-01 g/l

> <JCHEM_TRADITIONAL_IUPAC>
chlortetracycline

> <JCHEM_VEBER_RULE>
0

> <DRUGBANK_ID>
DB09093

> <DRUG_GROUPS>
approved; investigational; vet_approved

> <GENERIC_NAME>
Chlortetracycline

> <SYNONYMS>
Chlortetracycline; Chlortétracycline; Chlortetracyclinum; Clortetraciclina

> <PRODUCTS>
Aureomycin - Ont Top 3%; Aureomycin Ont 3%; Aureomycin Ont Oph 1%

> <INTERNATIONAL_BRANDS>
Aueromycin

> <SALTS>
Chlortetracycline bisulfate; Chlortetracycline calcium complex; Chlortetracycline hydrochloride

$$$$
439369
  -OEChem-01152014103D

 81 83  0     1  0  0  0  0  0999 V2000
    0.3232   -0.6192   -0.1434 O   0  0  0  0  0  0  0  0  0  0  0  0
   -0.1279   -2.7523    0.7797 O   0  0  0  0  0  0  0  0  0  0  0  0
   -2.7172   -0.2925    0.5212 O   0  0  0  0  0  0  0  0  0  0  0  0
   -2.8175   -2.6312    1.9625 O   0  0  0  0  0  0  0  0  0  0  0  0
   -3.1273    0.3370   -1.7234 O   0  0  0  0  0  0  0  0  0  0  0  0
    2.1959   -2.6699   -0.8257 O   0  0  0  0  0  0  0  0  0  0  0  0
    3.9519    2.2661    1.1131 O   0  0  0  0  0  0  0  0  0  0  0  0
    4.7948   -1.6839   -1.4576 O   0  0  0  0  0  0  0  0  0  0  0  0
   -3.3553   -3.3606   -1.5534 O   0  0  0  0  0  0  0  0  0  0  0  0
   -4.6953    3.6652    0.1584 O   0  0  0  0  0  0  0  0  0  0  0  0
   -2.2216    3.8748   -1.2494 O   0  0  0  0  0  0  0  0  0  0  0  0
   -0.9678    0.4153   -3.4094 O   0  0  0  0  0  0  0  0  0  0  0  0
    1.3169    1.2659    1.8210 N   0  0  0  0  0  0  0  0  0  0  0  0
   -5.1447    0.9902    1.3328 N   0  0  0  0  0  0  0  0  0  0  0  0
    5.8510    0.1826    0.5071 N   0  0  0  0  0  0  0  0  0  0  0  0
    1.4295    3.5079    0.9658 N   0  0  0  0  0  0  0  0  0  0  0  0
    0.3358    3.0492    2.9123 N   0  0  0  0  0  0  0  0  0  0  0  0
    8.1148    0.2223    0.0519 N   0  0  0  0  0  0  0  0  0  0  0  0
    6.7027    0.3706   -1.7310 N   0  0  0  0  0  0  0  0  0  0  0  0
   -1.9382   -1.3906    0.0881 C   0  0  2  0  0  0  0  0  0  0  0  0
   -2.4838   -2.7215    0.5769 C   0  0  1  0  0  0  0  0  0  0  0  0
   -0.5403   -1.3769    0.6912 C   0  0  2  0  0  0  0  0  0  0  0  0
    1.6658   -0.6359    0.3500 C   0  0  2  0  0  0  0  0  0  0  0  0
   -1.2400   -3.5946    0.4041 C   0  0  2  0  0  0  0  0  0  0  0  0
    2.1005    0.7963    0.6647 C   0  0  2  0  0  0  0  0  0  0  0  0
    2.5633   -1.2923   -0.7007 C   0  0  1  0  0  0  0  0  0  0  0  0
    3.5843    0.8867    1.0302 C   0  0  1  0  0  0  0  0  0  0  0  0
    4.0455   -1.2075   -0.3365 C   0  0  2  0  0  0  0  0  0  0  0  0
    4.4766    0.2261   -0.0231 C   0  0  2  0  0  0  0  0  0  0  0  0
   -3.7051    0.0688   -0.4423 C   0  0  2  0  0  0  0  0  0  0  0  0
   -3.7030   -3.2124   -0.1871 C   0  0  0  0  0  0  0  0  0  0  0  0
   -4.5827    1.2466    0.0066 C   0  0  2  0  0  0  0  0  0  0  0  0
   -3.7981    2.5654   -0.0101 C   0  0  1  0  0  0  0  0  0  0  0  0
   -1.2007   -4.8623    1.2404 C   0  0  0  0  0  0  0  0  0  0  0  0
   -3.0888    2.7479   -1.3566 C   0  0  2  0  0  0  0  0  0  0  0  0
   -2.2891    1.4965   -1.7378 C   0  0  2  0  0  0  0  0  0  0  0  0
   -1.6958    1.5995   -3.1404 C   0  0  0  0  0  0  0  0  0  0  0  0
    1.0618    2.5320    1.8654 C   0  0  0  0  0  0  0  0  0  0  0  0
   -5.8784   -0.2654    1.3467 C   0  0  0  0  0  0  0  0  0  0  0  0
    6.8041    0.2562   -0.3624 C   0  0  0  0  0  0  0  0  0  0  0  0
   -1.8106   -1.3952   -1.0015 H   0  0  0  0  0  0  0  0  0  0  0  0
   -0.5501   -0.9437    1.6992 H   0  0  0  0  0  0  0  0  0  0  0  0
    1.7320   -1.2279    1.2752 H   0  0  0  0  0  0  0  0  0  0  0  0
   -1.0778   -3.8568   -0.6485 H   0  0  0  0  0  0  0  0  0  0  0  0
    1.8844    1.3943   -0.2294 H   0  0  0  0  0  0  0  0  0  0  0  0
    2.3807   -0.8412   -1.6844 H   0  0  0  0  0  0  0  0  0  0  0  0
    3.7588    0.4413    2.0184 H   0  0  0  0  0  0  0  0  0  0  0  0
    4.2585   -1.8816    0.5033 H   0  0  0  0  0  0  0  0  0  0  0  0
    4.4191    0.8510   -0.9231 H   0  0  0  0  0  0  0  0  0  0  0  0
   -4.3652   -0.7726   -0.6295 H   0  0  0  0  0  0  0  0  0  0  0  0
   -3.9826   -4.2075    0.1791 H   0  0  0  0  0  0  0  0  0  0  0  0
   -4.6078   -2.6189   -0.0706 H   0  0  0  0  0  0  0  0  0  0  0  0
   -5.4092    1.3555   -0.7109 H   0  0  0  0  0  0  0  0  0  0  0  0
   -3.0716    2.6105    0.8106 H   0  0  0  0  0  0  0  0  0  0  0  0
   -1.1853   -4.6385    2.3123 H   0  0  0  0  0  0  0  0  0  0  0  0
   -0.2783   -5.4167    1.0344 H   0  0  0  0  0  0  0  0  0  0  0  0
   -2.0506   -5.5148    1.0224 H   0  0  0  0  0  0  0  0  0  0  0  0
   -3.8353    2.9752   -2.1286 H   0  0  0  0  0  0  0  0  0  0  0  0
   -1.4618    1.3482   -1.0322 H   0  0  0  0  0  0  0  0  0  0  0  0
   -3.2295   -3.4691    2.2332 H   0  0  0  0  0  0  0  0  0  0  0  0
   -5.7755    1.7542    1.5751 H   0  0  0  0  0  0  0  0  0  0  0  0
    2.7844   -3.0680   -1.4898 H   0  0  0  0  0  0  0  0  0  0  0  0
    4.8958    2.3019    1.3444 H   0  0  0  0  0  0  0  0  0  0  0  0
    5.6924   -1.8867   -1.1453 H   0  0  0  0  0  0  0  0  0  0  0  0
   -2.4841    1.6776   -3.8958 H   0  0  0  0  0  0  0  0  0  0  0  0
   -1.0197    2.4525   -3.2458 H   0  0  0  0  0  0  0  0  0  0  0  0
   -3.4139   -2.4857   -1.9721 H   0  0  0  0  0  0  0  0  0  0  0  0
   -5.3600    3.6256   -0.5501 H   0  0  0  0  0  0  0  0  0  0  0  0
   -1.9245    4.1075   -2.1448 H   0  0  0  0  0  0  0  0  0  0  0  0
   -6.5181   -0.2855    2.2361 H   0  0  0  0  0  0  0  0  0  0  0  0
   -5.2125   -1.1241    1.4451 H   0  0  0  0  0  0  0  0  0  0  0  0
   -6.5358   -0.3868    0.4793 H   0  0  0  0  0  0  0  0  0  0  0  0
   -0.2536    0.3507   -2.7525 H   0  0  0  0  0  0  0  0  0  0  0  0
    1.1550    4.4735    1.1127 H   0  0  0  0  0  0  0  0  0  0  0  0
    2.0081    3.3279    0.1544 H   0  0  0  0  0  0  0  0  0  0  0  0
   -0.0075    2.4520    3.6567 H   0  0  0  0  0  0  0  0  0  0  0  0
    0.1205    4.0384    2.9712 H   0  0  0  0  0  0  0  0  0  0  0  0
    8.3511    0.1398    1.0348 H   0  0  0  0  0  0  0  0  0  0  0  0
    8.8818    0.2771   -0.6091 H   0  0  0  0  0  0  0  0  0  0  0  0
    7.5366    0.4269   -2.3062 H   0  0  0  0  0  0  0  0  0  0  0  0
    5.8197    0.3654   -2.2268 H   0  0  0  0  0  0  0  0  0  0  0  0
  1 22  1  0  0  0  0
  1 23  1  0  0  0  0
  2 22  1  0  0  0  0
  2 24  1  0  0  0  0
  3 20  1  0  0  0  0
  3 30  1  0  0  0  0
  4 21  1  0  0  0  0
  4 60  1  0  0  0  0
  5 30  1  0  0  0  0
  5 36  1  0  0  0  0
  6 26  1  0  0  0  0
  6 62  1  0  0  0  0
  7 27  1  0  0  0  0
  7 63  1  0  0  0  0
  8 28  1  0  0  0  0
  8 64  1  0  0  0  0
  9 31  1  0  0  0  0
  9 67  1  0  0  0  0
 10 33  1  0  0  0  0
 10 68  1  0  0  0  0
 11 35  1  0  0  0  0
 11 69  1  0  0  0  0
 12 37  1  0  0  0  0
 12 73  1  0  0  0  0
 13 25  1  0  0  0  0
 13 38  2  0  0  0  0
 14 32  1  0  0  0  0
 14 39  1  0  0  0  0
 14 61  1  0  0  0  0
 15 29  1  0  0  0  0
 15 40  2  0  0  0  0
 16 38  1  0  0  0  0
 16 74  1  0  0  0  0
 16 75  1  0  0  0  0
 17 38  1  0  0  0  0
 17 76  1  0  0  0  0
 17 77  1  0  0  0  0
 18 40  1  0  0  0  0
 18 78  1  0  0  0  0
 18 79  1  0  0  0  0
 19 40  1  0  0  0  0
 19 80  1  0  0  0  0
 19 81  1  0  0  0  0
 20 21  1  0  0  0  0
 20 22  1  0  0  0  0
 20 41  1  0  0  0  0
 21 24  1  0  0  0  0
 21 31  1  0  0  0  0
 22 42  1  0  0  0  0
 23 25  1  0  0  0  0
 23 26  1  0  0  0  0
 23 43  1  0  0  0  0
 24 34  1  0  0  0  0
 24 44  1  0  0  0  0
 25 27  1  0  0  0  0
 25 45  1  0  0  0  0
 26 28  1  0  0  0  0
 26 46  1  0  0  0  0
 27 29  1  0  0  0  0
 27 47  1  0  0  0  0
 28 29  1  0  0  0  0
 28 48  1  0  0  0  0
 29 49  1  0  0  0  0
 30 32  1  0  0  0  0
 30 50  1  0  0  0  0
 31 51  1  0  0  0  0
 31 52  1  0  0  0  0
 32 33  1  0  0  0  0
 32 53  1  0  0  0  0
 33 35  1  0  0  0  0
 33 54  1  0  0  0  0
 34 55  1  0  0  0  0
 34 56  1  0  0  0  0
 34 57  1  0  0  0  0
 35 36  1  0  0  0  0
 35 58  1  0  0  0  0
 36 37  1  0  0  0  0
 36 59  1  0  0  0  0
 37 65  1  0  0  0  0
 37 66  1  0  0  0  0
 39 70  1  0  0  0  0
 39 71  1  0  0  0  0
 39 72  1  0  0  0  0
M  END
> <DATABASE_ID>
DB11512

> <DATABASE_NAME>
drugbank

> <ORIGINAL_SOURCE>
PUBCHEM

> <ORIGINAL_SOURCE_URL>
https://pubchem.ncbi.nlm.nih.gov/rest/pug/compound/inchikey/ASXBYYWOLISCLQ-HZYVHMACSA-N/SDF?record_type=3d

> <SMILES>
CN[C@H]1[C@H](O)[C@@H](O)[C@H](CO)O[C@H]1O[C@H]1[C@H](O[C@H]2[C@H](O)[C@@H](O)[C@H](NC(N)=N)[C@@H](O)[C@@H]2NC(N)=N)O[C@@H](C)[C@]1(O)CO

> <INCHI_IDENTIFIER>
InChI=1S/C21H41N7O12/c1-5-21(36,4-30)16(40-17-9(26-2)13(34)10(31)6(3-29)38-17)18(37-5)39-15-8(28-20(24)25)11(32)7(27-19(22)23)12(33)14(15)35/h5-18,26,29-36H,3-4H2,1-2H3,(H4,22,23,27)(H4,24,25,28)/t5-,6-,7+,8-,9-,10-,11+,12-,13-,14+,15+,16-,17-,18-,21+/m0/s1

> <INCHI_KEY>
ASXBYYWOLISCLQ-HZYVHMACSA-N

> <FORMULA>
C21H41N7O12

> <MOLECULAR_WEIGHT>
583.596

> <EXACT_MASS>
583.281319788

> <JCHEM_ACCEPTOR_COUNT>
19

> <JCHEM_ATOM_COUNT>
81

> <JCHEM_AVERAGE_NEUTRAL_MICROSPECIES_CHARGE>
2.925707682129069

> <JCHEM_AVERAGE_POLARIZABILITY>
56.66441231156106

> <JCHEM_BIOAVAILABILITY>
0

> <JCHEM_DONOR_COUNT>
15

> <JCHEM_FORMAL_CHARGE>
0

> <JCHEM_GHOSE_FILTER>
0

> <JCHEM_IUPAC>
N-[(1S,2R,3R,4S,5R,6R)-3-carbamimidamido-6-{[(2R,3R,4R,5S)-3-{[(2S,3S,4S,5R,6S)-4,5-dihydroxy-6-(hydroxymethyl)-3-(methylamino)oxan-2-yl]oxy}-4-hydroxy-4-(hydroxymethyl)-5-methyloxolan-2-yl]oxy}-2,4,5-trihydroxycyclohexyl]guanidine

> <ALOGPS_LOGP>
-3.02

> <JCHEM_LOGP>
-7.349804055213099

> <ALOGPS_LOGS>
-1.56

> <JCHEM_MDDR_LIKE_RULE>
1

> <JCHEM_NEUTRAL_CHARGE>
3

> <JCHEM_NUMBER_OF_RINGS>
3

> <JCHEM_PHYSIOLOGICAL_CHARGE>
3

> <JCHEM_PKA_STRONGEST_ACIDIC>
12.106282431456165

> <JCHEM_PKA_STRONGEST_BASIC>
11.30815817921976

> <JCHEM_POLAR_SURFACE_AREA>
334.59000000000003

> <JCHEM_REFRACTIVITY>
150.4536

> <JCHEM_ROTATABLE_BOND_COUNT>
9

> <JCHEM_RULE_OF_FIVE>
0

> <ALOGPS_SOLUBILITY>
1.60e+01 g/l

> <JCHEM_TRADITIONAL_IUPAC>
[(2R,3S,4R,5R)-3,4-dihydroxy-5-(4-hydroxy-5-methyl-2-oxopyrimidin-1-yl)oxolan-2-yl]methoxyphosphonic acid

> <JCHEM_VEBER_RULE>
0

$$$$
6324616
  -OEChem-02212014103D

 97100  0     1  0  0  0  0  0999 V2000
   -0.1653    1.3444    1.7859 O   0  0  0  0  0  0  0  0  0  0  0  0
   -0.8924    0.6829   -1.5030 O   0  0  0  0  0  0  0  0  0  0  0  0
   -4.6175    3.6445   -2.0937 O   0  0  0  0  0  0  0  0  0  0  0  0
    4.0763    3.5026    0.8440 O   0  0  0  0  0  0  0  0  0  0  0  0
    4.7567    0.2837   -1.7154 O   0  0  0  0  0  0  0  0  0  0  0  0
    4.5241   -1.2644    0.1928 O   0  0  0  0  0  0  0  0  0  0  0  0
    1.6481    0.1321    2.5466 O   0  0  0  0  0  0  0  0  0  0  0  0
    3.2741   -1.8176   -3.0487 O   0  0  0  0  0  0  0  0  0  0  0  0
    0.7198   -2.1521    2.9217 O   0  0  0  0  0  0  0  0  0  0  0  0
    0.8810   -2.4114   -3.1961 O   0  0  0  0  0  0  0  0  0  0  0  0
   -1.4583   -2.4618    1.7907 O   0  0  0  0  0  0  0  0  0  0  0  0
   -3.7464   -2.9052    1.6445 O   0  0  0  0  0  0  0  0  0  0  0  0
   -3.0591   -2.6466   -0.6250 N   0  0  0  0  0  0  0  0  0  0  0  0
   -0.2837    2.6847   -0.2748 C   0  0  2  0  0  0  0  0  0  0  0  0
   -1.4660    1.8046   -0.8079 C   0  0  1  0  0  0  0  0  0  0  0  0
    0.6134    1.8253    0.6832 C   0  0  1  0  0  0  0  0  0  0  0  0
   -2.5346    2.4114   -1.7627 C   0  0  1  0  0  0  0  0  0  0  0  0
    1.9304    2.4200    1.2663 C   0  0  1  0  0  0  0  0  0  0  0  0
   -3.6560    3.2632   -1.1001 C   0  0  2  0  0  0  0  0  0  0  0  0
   -0.7703    3.9684    0.3888 C   0  0  0  0  0  0  0  0  0  0  0  0
    2.9054    2.9897    0.2021 C   0  0  2  0  0  0  0  0  0  0  0  0
   -4.3866    2.6101    0.1026 C   0  0  1  0  0  0  0  0  0  0  0  0
   -1.8863    3.1840   -2.9264 C   0  0  0  0  0  0  0  0  0  0  0  0
    1.7316    3.3983    2.4387 C   0  0  0  0  0  0  0  0  0  0  0  0
   -5.3478    3.6150    0.7565 C   0  0  0  0  0  0  0  0  0  0  0  0
    3.3240    1.9659   -0.8248 C   0  0  0  0  0  0  0  0  0  0  0  0
   -5.1771    1.3733   -0.2708 C   0  0  0  0  0  0  0  0  0  0  0  0
    0.4859    0.5036    2.6378 C   0  0  0  0  0  0  0  0  0  0  0  0
    4.4372    1.2230   -0.7733 C   0  0  0  0  0  0  0  0  0  0  0  0
   -4.8461    0.1303    0.1116 C   0  0  0  0  0  0  0  0  0  0  0  0
    4.6894   -1.0703   -1.2341 C   0  0  1  0  0  0  0  0  0  0  0  0
    4.9463    4.1170   -0.0917 C   0  0  0  0  0  0  0  0  0  0  0  0
   -0.4453    0.0847    3.7349 C   0  0  0  0  0  0  0  0  0  0  0  0
    2.5022   -1.8960   -0.7792 C   0  0  0  0  0  0  0  0  0  0  0  0
    3.4340   -1.6420   -1.8570 C   0  0  0  0  0  0  0  0  0  0  0  0
    3.2212   -1.6537    0.3765 C   0  0  0  0  0  0  0  0  0  0  0  0
    1.1412   -2.2106   -0.7740 C   0  0  0  0  0  0  0  0  0  0  0  0
    5.9309   -1.8204   -1.6896 C   0  0  0  0  0  0  0  0  0  0  0  0
   -5.6617   -1.0368   -0.1676 C   0  0  0  0  0  0  0  0  0  0  0  0
    2.6291   -1.7627    1.6165 C   0  0  0  0  0  0  0  0  0  0  0  0
    0.5078   -2.2726    0.4916 C   0  0  0  0  0  0  0  0  0  0  0  0
    1.2678   -2.0724    1.6686 C   0  0  0  0  0  0  0  0  0  0  0  0
    0.3727   -2.4118   -1.9340 C   0  0  0  0  0  0  0  0  0  0  0  0
   -0.8826   -2.4809    0.5587 C   0  0  0  0  0  0  0  0  0  0  0  0
   -5.3070   -2.3205    0.0262 C   0  0  0  0  0  0  0  0  0  0  0  0
   -1.6476   -2.6077   -0.6050 C   0  0  0  0  0  0  0  0  0  0  0  0
    3.4207   -1.5165    2.8564 C   0  0  0  0  0  0  0  0  0  0  0  0
   -1.0050   -2.6040   -1.8467 C   0  0  0  0  0  0  0  0  0  0  0  0
   -3.9174   -2.6363    0.4637 C   0  0  0  0  0  0  0  0  0  0  0  0
   -6.2111   -3.4884   -0.2053 C   0  0  0  0  0  0  0  0  0  0  0  0
    0.3406    2.9594   -1.1339 H   0  0  0  0  0  0  0  0  0  0  0  0
   -1.9749    1.3635    0.0523 H   0  0  0  0  0  0  0  0  0  0  0  0
    0.9099    0.9399    0.1064 H   0  0  0  0  0  0  0  0  0  0  0  0
   -3.0442    1.5677   -2.2518 H   0  0  0  0  0  0  0  0  0  0  0  0
    2.5640    1.6461    1.6933 H   0  0  0  0  0  0  0  0  0  0  0  0
   -3.2324    4.2082   -0.7552 H   0  0  0  0  0  0  0  0  0  0  0  0
   -1.4406    3.7639    1.2288 H   0  0  0  0  0  0  0  0  0  0  0  0
    0.0618    4.5732    0.7473 H   0  0  0  0  0  0  0  0  0  0  0  0
   -1.2835    4.6142   -0.3246 H   0  0  0  0  0  0  0  0  0  0  0  0
    2.4126    3.8266   -0.3090 H   0  0  0  0  0  0  0  0  0  0  0  0
   -3.6482    2.3577    0.8721 H   0  0  0  0  0  0  0  0  0  0  0  0
   -1.4350    4.1215   -2.5891 H   0  0  0  0  0  0  0  0  0  0  0  0
   -1.1057    2.5848   -3.4069 H   0  0  0  0  0  0  0  0  0  0  0  0
   -2.6247    3.4287   -3.6970 H   0  0  0  0  0  0  0  0  0  0  0  0
    0.8711    3.1585    3.0679 H   0  0  0  0  0  0  0  0  0  0  0  0
    2.6130    3.3819    3.0913 H   0  0  0  0  0  0  0  0  0  0  0  0
    1.6272    4.4306    2.0947 H   0  0  0  0  0  0  0  0  0  0  0  0
   -1.6180    0.0771   -1.7287 H   0  0  0  0  0  0  0  0  0  0  0  0
   -5.8231    3.1801    1.6433 H   0  0  0  0  0  0  0  0  0  0  0  0
   -4.8075    4.5120    1.0785 H   0  0  0  0  0  0  0  0  0  0  0  0
   -6.1433    3.9282    0.0712 H   0  0  0  0  0  0  0  0  0  0  0  0
    2.6446    1.8192   -1.6616 H   0  0  0  0  0  0  0  0  0  0  0  0
   -4.9443    2.8356   -2.5224 H   0  0  0  0  0  0  0  0  0  0  0  0
   -6.0831    1.5279   -0.8540 H   0  0  0  0  0  0  0  0  0  0  0  0
    5.1619    1.2502    0.0289 H   0  0  0  0  0  0  0  0  0  0  0  0
   -3.9377   -0.0150    0.6891 H   0  0  0  0  0  0  0  0  0  0  0  0
    5.6602    3.4183   -0.5319 H   0  0  0  0  0  0  0  0  0  0  0  0
    4.4080    4.6645   -0.8733 H   0  0  0  0  0  0  0  0  0  0  0  0
    5.5436    4.8506    0.4599 H   0  0  0  0  0  0  0  0  0  0  0  0
   -1.2575   -0.5321    3.3524 H   0  0  0  0  0  0  0  0  0  0  0  0
   -0.8688    0.9830    4.1964 H   0  0  0  0  0  0  0  0  0  0  0  0
    0.1011   -0.4404    4.5228 H   0  0  0  0  0  0  0  0  0  0  0  0
    6.8225   -1.4047   -1.2068 H   0  0  0  0  0  0  0  0  0  0  0  0
    5.8784   -2.8811   -1.4216 H   0  0  0  0  0  0  0  0  0  0  0  0
    6.0771   -1.7379   -2.7719 H   0  0  0  0  0  0  0  0  0  0  0  0
   -6.6644   -0.8319   -0.5393 H   0  0  0  0  0  0  0  0  0  0  0  0
    4.0087   -0.5945    2.7691 H   0  0  0  0  0  0  0  0  0  0  0  0
    4.1292   -2.3433    2.9878 H   0  0  0  0  0  0  0  0  0  0  0  0
    2.8558   -1.4501    3.7905 H   0  0  0  0  0  0  0  0  0  0  0  0
   -1.5956   -2.7154   -2.7547 H   0  0  0  0  0  0  0  0  0  0  0  0
   -3.4781   -2.5960   -1.5518 H   0  0  0  0  0  0  0  0  0  0  0  0
   -6.3471   -4.0547    0.7218 H   0  0  0  0  0  0  0  0  0  0  0  0
   -5.7870   -4.1579   -0.9607 H   0  0  0  0  0  0  0  0  0  0  0  0
   -7.2007   -3.1757   -0.5542 H   0  0  0  0  0  0  0  0  0  0  0  0
    1.3106   -2.6775    3.4873 H   0  0  0  0  0  0  0  0  0  0  0  0
    0.1748   -2.5686   -3.8455 H   0  0  0  0  0  0  0  0  0  0  0  0
   -0.8739   -2.8943    2.4342 H   0  0  0  0  0  0  0  0  0  0  0  0
  1 16  1  0  0  0  0
  1 28  1  0  0  0  0
  2 15  1  0  0  0  0
  2 68  1  0  0  0  0
  3 19  1  0  0  0  0
  3 73  1  0  0  0  0
  4 21  1  0  0  0  0
  4 32  1  0  0  0  0
  5 29  1  0  0  0  0
  5 31  1  0  0  0  0
  6 31  1  0  0  0  0
  6 36  1  0  0  0  0
  7 28  2  0  0  0  0
  8 35  2  0  0  0  0
  9 42  1  0  0  0  0
  9 95  1  0  0  0  0
 10 43  1  0  0  0  0
 10 96  1  0  0  0  0
 11 44  1  0  0  0  0
 11 97  1  0  0  0  0
 12 49  2  0  0  0  0
 13 46  1  0  0  0  0
 13 49  1  0  0  0  0
 13 91  1  0  0  0  0
 14 15  1  0  0  0  0
 14 16  1  0  0  0  0
 14 20  1  0  0  0  0
 14 51  1  0  0  0  0
 15 17  1  0  0  0  0
 15 52  1  0  0  0  0
 16 18  1  0  0  0  0
 16 53  1  0  0  0  0
 17 19  1  0  0  0  0
 17 23  1  0  0  0  0
 17 54  1  0  0  0  0
 18 21  1  0  0  0  0
 18 24  1  0  0  0  0
 18 55  1  0  0  0  0
 19 22  1  0  0  0  0
 19 56  1  0  0  0  0
 20 57  1  0  0  0  0
 20 58  1  0  0  0  0
 20 59  1  0  0  0  0
 21 26  1  0  0  0  0
 21 60  1  0  0  0  0
 22 25  1  0  0  0  0
 22 27  1  0  0  0  0
 22 61  1  0  0  0  0
 23 62  1  0  0  0  0
 23 63  1  0  0  0  0
 23 64  1  0  0  0  0
 24 65  1  0  0  0  0
 24 66  1  0  0  0  0
 24 67  1  0  0  0  0
 25 69  1  0  0  0  0
 25 70  1  0  0  0  0
 25 71  1  0  0  0  0
 26 29  2  0  0  0  0
 26 72  1  0  0  0  0
 27 30  2  0  0  0  0
 27 74  1  0  0  0  0
 28 33  1  0  0  0  0
 29 75  1  0  0  0  0
 30 39  1  0  0  0  0
 30 76  1  0  0  0  0
 31 35  1  0  0  0  0
 31 38  1  0  0  0  0
 32 77  1  0  0  0  0
 32 78  1  0  0  0  0
 32 79  1  0  0  0  0
 33 80  1  0  0  0  0
 33 81  1  0  0  0  0
 33 82  1  0  0  0  0
 34 35  1  0  0  0  0
 34 36  2  0  0  0  0
 34 37  1  0  0  0  0
 36 40  1  0  0  0  0
 37 41  1  0  0  0  0
 37 43  2  0  0  0  0
 38 83  1  0  0  0  0
 38 84  1  0  0  0  0
 38 85  1  0  0  0  0
 39 45  2  0  0  0  0
 39 86  1  0  0  0  0
 40 42  2  0  0  0  0
 40 47  1  0  0  0  0
 41 42  1  0  0  0  0
 41 44  2  0  0  0  0
 43 48  1  0  0  0  0
 44 46  1  0  0  0  0
 45 49  1  0  0  0  0
 45 50  1  0  0  0  0
 46 48  2  0  0  0  0
 47 87  1  0  0  0  0
 47 88  1  0  0  0  0
 47 89  1  0  0  0  0
 48 90  1  0  0  0  0
 50 92  1  0  0  0  0
 50 93  1  0  0  0  0
 50 94  1  0  0  0  0
M  END
> <DATABASE_ID>
DB11753

> <DATABASE_NAME>
drugbank

> <ORIGINAL_SOURCE>
PUBCHEM

> <ORIGINAL_SOURCE_URL>
https://pubchem.ncbi.nlm.nih.gov/rest/pug/compound/inchikey/HJYYPODYNSCCOU-ODRIEIDWSA-N/SDF?record_type=3d

> <SMILES>
CO[C@H]1\C=C\O[C@@]2(C)OC3=C(C)C(O)=C4C(O)=C(NC(=O)\C(C)=C/C=C/[C@H](C)[C@H](O)[C@@H](C)[C@@H](O)[C@@H](C)[C@H](OC(C)=O)[C@@H]1C)C=C(O)C4=C3C2=O

> <INCHI_IDENTIFIER>
InChI=1S/C37H47NO12/c1-16-11-10-12-17(2)36(46)38-23-15-24(40)26-27(32(23)44)31(43)21(6)34-28(26)35(45)37(8,50-34)48-14-13-25(47-9)18(3)33(49-22(7)39)20(5)30(42)19(4)29(16)41/h10-16,18-20,25,29-30,33,40-44H,1-9H3,(H,38,46)/b11-10+,14-13+,17-12-/t16-,18+,19+,20+,25-,29-,30+,33+,37-/m0/s1

> <INCHI_KEY>
HJYYPODYNSCCOU-ODRIEIDWSA-N

> <FORMULA>
C37H47NO12

> <MOLECULAR_WEIGHT>
697.778

> <EXACT_MASS>
697.309825957

> <JCHEM_ACCEPTOR_COUNT>
11

> <JCHEM_ATOM_COUNT>
97

> <JCHEM_AVERAGE_NEUTRAL_MICROSPECIES_CHARGE>
-0.4798843557907934

> <JCHEM_AVERAGE_POLARIZABILITY>
72.60376935991462

> <JCHEM_BIOAVAILABILITY>
0

> <JCHEM_DONOR_COUNT>
6

> <JCHEM_FORMAL_CHARGE>
0

> <JCHEM_GHOSE_FILTER>
0

> <JCHEM_IUPAC>
(7S,9E,11S,12R,13S,14R,15R,16R,17S,18S,19E,21Z)-2,15,17,27,29-pentahydroxy-11-methoxy-3,7,12,14,16,18,22-heptamethyl-6,23-dioxo-8,30-dioxa-24-azatetracyclo[23.3.1.1^{4,7}.0^{5,28}]triaconta-1,3,5(28),9,19,21,25(29),26-octaen-13-yl acetate

> <ALOGPS_LOGP>
4.15

> <JCHEM_LOGP>
4.174343761666667

> <ALOGPS_LOGS>
-4.68

> <JCHEM_MDDR_LIKE_RULE>
0

> <JCHEM_NEUTRAL_CHARGE>
0

> <JCHEM_NUMBER_OF_RINGS>
4

> <JCHEM_PHYSIOLOGICAL_CHARGE>
-1

> <JCHEM_PKA>
8.531655338609067

> <JCHEM_PKA_STRONGEST_ACIDIC>
7.09175134467209

> <JCHEM_PKA_STRONGEST_BASIC>
-1.0787498224598797

> <JCHEM_POLAR_SURFACE_AREA>
201.30999999999997

> <JCHEM_REFRACTIVITY>
187.79820000000007

> <JCHEM_ROTATABLE_BOND_COUNT>
3

> <JCHEM_RULE_OF_FIVE>
0

> <ALOGPS_SOLUBILITY>
1.47e-02 g/l

> <JCHEM_TRADITIONAL_IUPAC>
(5Z,7E)-deca-5,7,9-trien-2-one

> <JCHEM_VEBER_RULE>
0

$$$$
65957
  -OEChem-10051722343D

 38 41  0     1  0  0  0  0  0999 V2000
   -2.5894    2.7942    0.2412 F   0  0  0  0  0  0  0  0  0  0  0  0
   -1.7439   -1.8470   -0.1236 O   0  0  0  0  0  0  0  0  0  0  0  0
    2.4468    2.4733    0.0075 O   0  0  0  0  0  0  0  0  0  0  0  0
    4.7865    1.4109    0.5384 O   0  0  0  0  0  0  0  0  0  0  0  0
    5.1758   -0.4864   -0.6777 O   0  0  0  0  0  0  0  0  0  0  0  0
   -4.1146   -0.1229    1.4568 N   0  0  0  0  0  0  0  0  0  0  0  0
    1.0884   -1.3632   -0.1152 N   0  0  0  0  0  0  0  0  0  0  0  0
   -3.6244    0.1912    0.1095 C   0  0  0  0  0  0  0  0  0  0  0  0
   -4.2441   -0.5001   -1.0643 C   0  0  0  0  0  0  0  0  0  0  0  0
   -4.5109    0.9567   -0.8222 C   0  0  0  0  0  0  0  0  0  0  0  0
   -2.1569    0.4669    0.0705 C   0  0  0  0  0  0  0  0  0  0  0  0
   -1.2338   -0.5740   -0.0453 C   0  0  0  0  0  0  0  0  0  0  0  0
    0.1456   -0.3173   -0.0550 C   0  0  0  0  0  0  0  0  0  0  0  0
   -1.7115    1.7859    0.1399 C   0  0  0  0  0  0  0  0  0  0  0  0
    0.5481   -2.7239   -0.0490 C   0  0  2  0  0  0  0  0  0  0  0  0
    0.5762    1.0217    0.0042 C   0  0  0  0  0  0  0  0  0  0  0  0
   -0.8207   -2.7566   -0.7303 C   0  0  0  0  0  0  0  0  0  0  0  0
   -0.3467    2.0687    0.1001 C   0  0  0  0  0  0  0  0  0  0  0  0
    2.4366   -1.0681   -0.1340 C   0  0  0  0  0  0  0  0  0  0  0  0
    2.0324    1.3215   -0.0275 C   0  0  0  0  0  0  0  0  0  0  0  0
    0.4779   -3.1910    1.4073 C   0  0  0  0  0  0  0  0  0  0  0  0
    2.9630    0.1627   -0.1015 C   0  0  0  0  0  0  0  0  0  0  0  0
    4.4197    0.2968   -0.1299 C   0  0  0  0  0  0  0  0  0  0  0  0
   -5.0589   -1.1941   -0.8918 H   0  0  0  0  0  0  0  0  0  0  0  0
   -3.6368   -0.7517   -1.9264 H   0  0  0  0  0  0  0  0  0  0  0  0
   -4.0859    1.6545   -1.5346 H   0  0  0  0  0  0  0  0  0  0  0  0
   -5.5044    1.2348   -0.4884 H   0  0  0  0  0  0  0  0  0  0  0  0
   -3.7260   -1.0096    1.7767 H   0  0  0  0  0  0  0  0  0  0  0  0
   -5.1267   -0.2455    1.4590 H   0  0  0  0  0  0  0  0  0  0  0  0
    1.2103   -3.4081   -0.5952 H   0  0  0  0  0  0  0  0  0  0  0  0
   -0.7391   -2.5175   -1.7992 H   0  0  0  0  0  0  0  0  0  0  0  0
   -1.2555   -3.7598   -0.6593 H   0  0  0  0  0  0  0  0  0  0  0  0
   -0.0230    3.1044    0.1510 H   0  0  0  0  0  0  0  0  0  0  0  0
    3.0579   -1.9573   -0.1716 H   0  0  0  0  0  0  0  0  0  0  0  0
   -0.1524   -2.5380    2.0205 H   0  0  0  0  0  0  0  0  0  0  0  0
    0.0730   -4.2065    1.4674 H   0  0  0  0  0  0  0  0  0  0  0  0
    1.4755   -3.2002    1.8598 H   0  0  0  0  0  0  0  0  0  0  0  0
    5.7596    1.5355    0.5412 H   0  0  0  0  0  0  0  0  0  0  0  0
  1 14  1  0  0  0  0
  2 12  1  0  0  0  0
  2 17  1  0  0  0  0
  3 20  2  0  0  0  0
  4 23  1  0  0  0  0
  4 38  1  0  0  0  0
  5 23  2  0  0  0  0
  6  8  1  0  0  0  0
  6 28  1  0  0  0  0
  6 29  1  0  0  0  0
  7 13  1  0  0  0  0
  7 15  1  0  0  0  0
  7 19  1  0  0  0  0
  8  9  1  0  0  0  0
  8 10  1  0  0  0  0
  8 11  1  0  0  0  0
  9 10  1  0  0  0  0
  9 24  1  0  0  0  0
  9 25  1  0  0  0  0
 10 26  1  0  0  0  0
 10 27  1  0  0  0  0
 11 12  1  0  0  0  0
 11 14  2  0  0  0  0
 12 13  2  0  0  0  0
 13 16  1  0  0  0  0
 14 18  1  0  0  0  0
 15 17  1  0  0  0  0
 15 21  1  0  0  0  0
 15 30  1  0  0  0  0
 16 18  2  0  0  0  0
 16 20  1  0  0  0  0
 17 31  1  0  0  0  0
 17 32  1  0  0  0  0
 18 33  1  0  0  0  0
 19 22  2  0  0  0  0
 19 34  1  0  0  0  0
 20 22  1  0  0  0  0
 21 35  1  0  0  0  0
 21 36  1  0  0  0  0
 21 37  1  0  0  0  0
 22 23  1  0  0  0  0
M  END
> <DATABASE_ID>
DB11774

> <DATABASE_NAME>
drugbank

> <ORIGINAL_SOURCE>
PUBCHEM

> <ORIGINAL_SOURCE_URL>
https://pubchem.ncbi.nlm.nih.gov/rest/pug/compound/inchikey/XAGMUUZPGZWTRP-ZETCQYMHSA-N/SDF?record_type=3d

> <SMILES>
[H][C@]1(C)COC2=C3N1C=C(C(O)=O)C(=O)C3=CC(F)=C2C1(N)CC1

> <INCHI_IDENTIFIER>
InChI=1S/C16H15FN2O4/c1-7-6-23-14-11(16(18)2-3-16)10(17)4-8-12(14)19(7)5-9(13(8)20)15(21)22/h4-5,7H,2-3,6,18H2,1H3,(H,21,22)/t7-/m0/s1

> <INCHI_KEY>
XAGMUUZPGZWTRP-ZETCQYMHSA-N

> <FORMULA>
C16H15FN2O4

> <MOLECULAR_WEIGHT>
318.304

> <EXACT_MASS>
318.101585134

> <JCHEM_ACCEPTOR_COUNT>
6

> <JCHEM_ATOM_COUNT>
38

> <JCHEM_AVERAGE_POLARIZABILITY>
30.763427096528766

> <JCHEM_BIOAVAILABILITY>
1

> <JCHEM_DONOR_COUNT>
2

> <JCHEM_FORMAL_CHARGE>
0

> <JCHEM_GHOSE_FILTER>
0

> <JCHEM_IUPAC>
(2S)-6-(1-aminocyclopropyl)-7-fluoro-2-methyl-10-oxo-4-oxa-1-azatricyclo[7.3.1.0⁵,¹³]trideca-5(13),6,8,11-tetraene-11-carboxylic acid

> <ALOGPS_LOGP>
-0.51

> <JCHEM_LOGP>
-1.0095917023648966

> <ALOGPS_LOGS>
-2.12

> <JCHEM_MDDR_LIKE_RULE>
0

> <JCHEM_NUMBER_OF_RINGS>
4

> <JCHEM_PHYSIOLOGICAL_CHARGE>
0

> <JCHEM_PKA_STRONGEST_ACIDIC>
5.585554546935236

> <JCHEM_PKA_STRONGEST_BASIC>
8.158173520156941

> <JCHEM_POLAR_SURFACE_AREA>
92.86

> <JCHEM_REFRACTIVITY>
80.0314

> <JCHEM_ROTATABLE_BOND_COUNT>
2

> <JCHEM_RULE_OF_FIVE>
1

> <ALOGPS_SOLUBILITY>
2.41e+00 g/l

> <JCHEM_TRADITIONAL_IUPAC>
pazufloxacin

> <JCHEM_VEBER_RULE>
0

$$$$
65947
  -OEChem-10051722363D

 52 56  0     1  0  0  0  0  0999 V2000
    4.7106    3.0769   -0.1651 S   0  0  0  0  0  0  0  0  0  0  0  0
    0.4375   -3.4431    0.1297 F   0  0  0  0  0  0  0  0  0  0  0  0
   -5.6682    1.0849    0.7613 O   0  0  0  0  0  0  0  0  0  0  0  0
    5.3161   -2.0712   -0.2319 O   0  0  0  0  0  0  0  0  0  0  0  0
   -7.2084    1.4794   -0.9391 O   0  0  0  0  0  0  0  0  0  0  0  0
    7.3360   -0.5209   -1.0156 O   0  0  0  0  0  0  0  0  0  0  0  0
    7.3899    1.4580    0.1294 O   0  0  0  0  0  0  0  0  0  0  0  0
   -6.5469    3.1809    0.4504 O   0  0  0  0  0  0  0  0  0  0  0  0
   -1.0012   -1.0773    0.2474 N   0  0  0  0  0  0  0  0  0  0  0  0
   -3.8231   -0.9472    0.6705 N   0  0  0  0  0  0  0  0  0  0  0  0
    3.2247    1.3354   -0.0583 N   0  0  0  0  0  0  0  0  0  0  0  0
   -1.7801    0.0234   -0.3281 C   0  0  0  0  0  0  0  0  0  0  0  0
   -1.6024   -1.7401    1.4116 C   0  0  0  0  0  0  0  0  0  0  0  0
   -3.2303   -0.4081   -0.5594 C   0  0  0  0  0  0  0  0  0  0  0  0
   -3.0578   -2.1154    1.1234 C   0  0  0  0  0  0  0  0  0  0  0  0
    0.3943   -1.0685    0.1437 C   0  0  0  0  0  0  0  0  0  0  0  0
    2.4681    0.1607   -0.0061 C   0  0  0  0  0  0  0  0  0  0  0  0
    2.9386    2.7172   -0.0316 C   0  0  1  0  0  0  0  0  0  0  0  0
    4.5192    1.3632   -0.1566 C   0  0  0  0  0  0  0  0  0  0  0  0
   -5.2238   -1.3056    0.4508 C   0  0  0  0  0  0  0  0  0  0  0  0
    1.0768    0.1486    0.0982 C   0  0  0  0  0  0  0  0  0  0  0  0
    3.1715   -1.0640   -0.0643 C   0  0  0  0  0  0  0  0  0  0  0  0
    1.0956   -2.2754    0.0858 C   0  0  0  0  0  0  0  0  0  0  0  0
    5.3408    0.3061   -0.2230 C   0  0  0  0  0  0  0  0  0  0  0  0
    2.4870   -2.2790   -0.0182 C   0  0  0  0  0  0  0  0  0  0  0  0
    4.6673   -1.0333   -0.1775 C   0  0  0  0  0  0  0  0  0  0  0  0
    2.3900    3.1571    1.3029 C   0  0  0  0  0  0  0  0  0  0  0  0
   -5.9324   -0.0631    0.0414 C   0  0  0  0  0  0  0  0  0  0  0  0
   -6.8031    0.1599   -0.9198 C   0  0  0  0  0  0  0  0  0  0  0  0
    6.7810    0.5044   -0.3315 C   0  0  0  0  0  0  0  0  0  0  0  0
   -7.3873   -0.7475   -1.9366 C   0  0  0  0  0  0  0  0  0  0  0  0
   -6.4798    2.0037    0.1163 C   0  0  0  0  0  0  0  0  0  0  0  0
   -1.7586    0.8899    0.3454 H   0  0  0  0  0  0  0  0  0  0  0  0
   -1.3598    0.3314   -1.2939 H   0  0  0  0  0  0  0  0  0  0  0  0
   -1.0650   -2.6507    1.6965 H   0  0  0  0  0  0  0  0  0  0  0  0
   -1.5546   -1.0608    2.2730 H   0  0  0  0  0  0  0  0  0  0  0  0
   -3.7494    0.4799   -0.9348 H   0  0  0  0  0  0  0  0  0  0  0  0
   -3.2607   -1.1594   -1.3610 H   0  0  0  0  0  0  0  0  0  0  0  0
   -3.0881   -2.9157    0.3716 H   0  0  0  0  0  0  0  0  0  0  0  0
   -3.4970   -2.5161    2.0450 H   0  0  0  0  0  0  0  0  0  0  0  0
    2.3425    3.0434   -0.8911 H   0  0  0  0  0  0  0  0  0  0  0  0
   -5.3255   -2.0978   -0.2998 H   0  0  0  0  0  0  0  0  0  0  0  0
   -5.6698   -1.6676    1.3848 H   0  0  0  0  0  0  0  0  0  0  0  0
    0.5425    1.0922    0.1440 H   0  0  0  0  0  0  0  0  0  0  0  0
    3.0131   -3.2279   -0.0620 H   0  0  0  0  0  0  0  0  0  0  0  0
    2.9523    2.7564    2.1553 H   0  0  0  0  0  0  0  0  0  0  0  0
    2.3993    4.2503    1.3842 H   0  0  0  0  0  0  0  0  0  0  0  0
    1.3472    2.8472    1.4250 H   0  0  0  0  0  0  0  0  0  0  0  0
   -7.0276   -1.7747   -1.8300 H   0  0  0  0  0  0  0  0  0  0  0  0
   -7.1304   -0.4034   -2.9433 H   0  0  0  0  0  0  0  0  0  0  0  0
   -8.4781   -0.7641   -1.8470 H   0  0  0  0  0  0  0  0  0  0  0  0
    8.3073   -0.4191   -1.1074 H   0  0  0  0  0  0  0  0  0  0  0  0
  1 18  1  0  0  0  0
  1 19  1  0  0  0  0
  2 23  1  0  0  0  0
  3 28  1  0  0  0  0
  3 32  1  0  0  0  0
  4 26  2  0  0  0  0
  5 29  1  0  0  0  0
  5 32  1  0  0  0  0
  6 30  1  0  0  0  0
  6 52  1  0  0  0  0
  7 30  2  0  0  0  0
  8 32  2  0  0  0  0
  9 12  1  0  0  0  0
  9 13  1  0  0  0  0
  9 16  1  0  0  0  0
 10 14  1  0  0  0  0
 10 15  1  0  0  0  0
 10 20  1  0  0  0  0
 11 17  1  0  0  0  0
 11 18  1  0  0  0  0
 11 19  1  0  0  0  0
 12 14  1  0  0  0  0
 12 33  1  0  0  0  0
 12 34  1  0  0  0  0
 13 15  1  0  0  0  0
 13 35  1  0  0  0  0
 13 36  1  0  0  0  0
 14 37  1  0  0  0  0
 14 38  1  0  0  0  0
 15 39  1  0  0  0  0
 15 40  1  0  0  0  0
 16 21  1  0  0  0  0
 16 23  2  0  0  0  0
 17 21  2  0  0  0  0
 17 22  1  0  0  0  0
 18 27  1  0  0  0  0
 18 41  1  0  0  0  0
 19 24  2  0  0  0  0
 20 28  1  0  0  0  0
 20 42  1  0  0  0  0
 20 43  1  0  0  0  0
 21 44  1  0  0  0  0
 22 25  2  0  0  0  0
 22 26  1  0  0  0  0
 23 25  1  0  0  0  0
 24 26  1  0  0  0  0
 24 30  1  0  0  0  0
 25 45  1  0  0  0  0
 27 46  1  0  0  0  0
 27 47  1  0  0  0  0
 27 48  1  0  0  0  0
 28 29  2  0  0  0  0
 29 31  1  0  0  0  0
 31 49  1  0  0  0  0
 31 50  1  0  0  0  0
 31 51  1  0  0  0  0
M  END
> <DATABASE_ID>
DB11892

> <DATABASE_NAME>
drugbank

> <ORIGINAL_SOURCE>
PUBCHEM

> <ORIGINAL_SOURCE_URL>
https://pubchem.ncbi.nlm.nih.gov/rest/pug/compound/inchikey/PWNMXPDKBYZCOO-UHFFFAOYSA-N/SDF?record_type=3d

> <SMILES>
CC1SC2=C(C(O)=O)C(=O)C3=CC(F)=C(C=C3N12)N1CCN(CC2=C(C)OC(=O)O2)CC1

> <INCHI_IDENTIFIER>
InChI=1S/C21H20FN3O6S/c1-10-16(31-21(29)30-10)9-23-3-5-24(6-4-23)15-8-14-12(7-13(15)22)18(26)17(20(27)28)19-25(14)11(2)32-19/h7-8,11H,3-6,9H2,1-2H3,(H,27,28)

> <INCHI_KEY>
PWNMXPDKBYZCOO-UHFFFAOYSA-N

> <FORMULA>
C21H20FN3O6S

> <MOLECULAR_WEIGHT>
461.46

> <EXACT_MASS>
461.105684713

> <JCHEM_ACCEPTOR_COUNT>
8

> <JCHEM_ATOM_COUNT>
52

> <JCHEM_AVERAGE_POLARIZABILITY>
44.944541727204026

> <JCHEM_BIOAVAILABILITY>
1

> <JCHEM_DONOR_COUNT>
1

> <JCHEM_FORMAL_CHARGE>
0

> <JCHEM_GHOSE_FILTER>
1

> <JCHEM_IUPAC>
6-fluoro-1-methyl-7-{4-[(5-methyl-2-oxo-2H-1,3-dioxol-4-yl)methyl]piperazin-1-yl}-4-oxo-1H,4H-[1,3]thiazeto[3,2-a]quinoline-3-carboxylic acid

> <ALOGPS_LOGP>
1.77

> <JCHEM_LOGP>
2.493977008178067

> <ALOGPS_LOGS>
-2.89

> <JCHEM_MDDR_LIKE_RULE>
0

> <JCHEM_NUMBER_OF_RINGS>
5

> <JCHEM_PHYSIOLOGICAL_CHARGE>
-1

> <JCHEM_PKA>
10.896677654080264

> <JCHEM_PKA_STRONGEST_ACIDIC>
6.028546900007003

> <JCHEM_PKA_STRONGEST_BASIC>
5.163019608969104

> <JCHEM_POLAR_SURFACE_AREA>
99.62

> <JCHEM_REFRACTIVITY>
127.36879999999998

> <JCHEM_ROTATABLE_BOND_COUNT>
4

> <JCHEM_RULE_OF_FIVE>
1

> <ALOGPS_SOLUBILITY>
5.93e-01 g/l

> <JCHEM_TRADITIONAL_IUPAC>
prulifloxacin

> <JCHEM_VEBER_RULE>
0

$$$$
487101
  -OEChem-10051722373D

 42 45  0     0  0  0  0  0  0999 V2000
    1.3485    1.6272   -0.2405 Cl  0  0  0  0  0  0  0  0  0  0  0  0
    3.4475   -2.9314    0.0515 F   0  0  0  0  0  0  0  0  0  0  0  0
   -1.5782    1.2410    2.3812 F   0  0  0  0  0  0  0  0  0  0  0  0
   -1.7231    5.4757    0.2635 F   0  0  0  0  0  0  0  0  0  0  0  0
    6.7064    0.5658    0.3707 O   0  0  0  0  0  0  0  0  0  0  0  0
   -1.4291   -4.1156    0.0891 O   0  0  0  0  0  0  0  0  0  0  0  0
   -3.9127   -3.8846   -0.7538 O   0  0  0  0  0  0  0  0  0  0  0  0
   -4.9779   -2.1460    0.2822 O   0  0  0  0  0  0  0  0  0  0  0  0
    3.5970   -0.2122   -0.1114 N   0  0  0  0  0  0  0  0  0  0  0  0
   -1.3417   -0.0164   -0.0631 N   0  0  0  0  0  0  0  0  0  0  0  0
   -1.4167    2.1364   -1.1369 N   0  0  0  0  0  0  0  0  0  0  0  0
   -1.4911    4.2698   -2.1900 N   0  0  0  0  0  0  0  0  0  0  0  0
    5.4014    0.7365   -0.2271 C   0  0  0  0  0  0  0  0  0  0  0  0
    4.2197    0.7363    0.7477 C   0  0  0  0  0  0  0  0  0  0  0  0
    4.7803   -0.5235   -0.8381 C   0  0  0  0  0  0  0  0  0  0  0  0
    2.3417   -0.8337   -0.0613 C   0  0  0  0  0  0  0  0  0  0  0  0
    1.1504   -0.1025   -0.0938 C   0  0  0  0  0  0  0  0  0  0  0  0
   -0.1015   -0.7422   -0.0317 C   0  0  0  0  0  0  0  0  0  0  0  0
    2.3105   -2.2214    0.0200 C   0  0  0  0  0  0  0  0  0  0  0  0
   -0.1070   -2.1535    0.0205 C   0  0  0  0  0  0  0  0  0  0  0  0
    1.0880   -2.8855    0.0553 C   0  0  0  0  0  0  0  0  0  0  0  0
   -1.3928   -2.8938    0.0144 C   0  0  0  0  0  0  0  0  0  0  0  0
   -2.5201   -0.7574   -0.1242 C   0  0  0  0  0  0  0  0  0  0  0  0
   -2.6315   -2.0905   -0.0952 C   0  0  0  0  0  0  0  0  0  0  0  0
   -1.4412    1.4115    0.0119 C   0  0  0  0  0  0  0  0  0  0  0  0
   -1.5580    1.9912    1.2720 C   0  0  0  0  0  0  0  0  0  0  0  0
   -3.9714   -2.6777   -0.1522 C   0  0  0  0  0  0  0  0  0  0  0  0
   -1.6541    3.3757    1.3572 C   0  0  0  0  0  0  0  0  0  0  0  0
   -1.5122    3.4793   -1.0146 C   0  0  0  0  0  0  0  0  0  0  0  0
   -1.6316    4.1413    0.1968 C   0  0  0  0  0  0  0  0  0  0  0  0
    5.3993    1.5924   -0.9138 H   0  0  0  0  0  0  0  0  0  0  0  0
    4.4292    0.3175    1.7376 H   0  0  0  0  0  0  0  0  0  0  0  0
    3.7340    1.7050    0.8557 H   0  0  0  0  0  0  0  0  0  0  0  0
    4.6399   -0.5000   -1.9215 H   0  0  0  0  0  0  0  0  0  0  0  0
    5.2464   -1.4637   -0.5310 H   0  0  0  0  0  0  0  0  0  0  0  0
    6.8768    1.4015    0.8377 H   0  0  0  0  0  0  0  0  0  0  0  0
    1.0850   -3.9710    0.1012 H   0  0  0  0  0  0  0  0  0  0  0  0
   -3.4040   -0.1278   -0.1927 H   0  0  0  0  0  0  0  0  0  0  0  0
   -1.7459    3.8569    2.3260 H   0  0  0  0  0  0  0  0  0  0  0  0
   -4.7941   -4.3113   -0.8108 H   0  0  0  0  0  0  0  0  0  0  0  0
   -1.9638    5.1651   -2.1758 H   0  0  0  0  0  0  0  0  0  0  0  0
   -1.4120    3.7809   -3.0729 H   0  0  0  0  0  0  0  0  0  0  0  0
  1 17  1  0  0  0  0
  2 19  1  0  0  0  0
  3 26  1  0  0  0  0
  4 30  1  0  0  0  0
  5 13  1  0  0  0  0
  5 36  1  0  0  0  0
  6 22  2  0  0  0  0
  7 27  1  0  0  0  0
  7 40  1  0  0  0  0
  8 27  2  0  0  0  0
  9 14  1  0  0  0  0
  9 15  1  0  0  0  0
  9 16  1  0  0  0  0
 10 18  1  0  0  0  0
 10 23  1  0  0  0  0
 10 25  1  0  0  0  0
 11 25  1  0  0  0  0
 11 29  2  0  0  0  0
 12 29  1  0  0  0  0
 12 41  1  0  0  0  0
 12 42  1  0  0  0  0
 13 14  1  0  0  0  0
 13 15  1  0  0  0  0
 13 31  1  0  0  0  0
 14 32  1  0  0  0  0
 14 33  1  0  0  0  0
 15 34  1  0  0  0  0
 15 35  1  0  0  0  0
 16 17  1  0  0  0  0
 16 19  2  0  0  0  0
 17 18  2  0  0  0  0
 18 20  1  0  0  0  0
 19 21  1  0  0  0  0
 20 21  2  0  0  0  0
 20 22  1  0  0  0  0
 21 37  1  0  0  0  0
 22 24  1  0  0  0  0
 23 24  2  0  0  0  0
 23 38  1  0  0  0  0
 24 27  1  0  0  0  0
 25 26  2  0  0  0  0
 26 28  1  0  0  0  0
 28 30  2  0  0  0  0
 28 39  1  0  0  0  0
 29 30  1  0  0  0  0
M  END
> <DATABASE_ID>
DB11943

> <DATABASE_NAME>
drugbank

> <ORIGINAL_SOURCE>
PUBCHEM

> <ORIGINAL_SOURCE_URL>
https://pubchem.ncbi.nlm.nih.gov/rest/pug/compound/inchikey/DYDCPNMLZGFQTM-UHFFFAOYSA-N/SDF?record_type=3d

> <SMILES>
NC1=NC(N2C=C(C(O)=O)C(=O)C3=CC(F)=C(N4CC(O)C4)C(Cl)=C23)=C(F)C=C1F

> <INCHI_IDENTIFIER>
InChI=1S/C18H12ClF3N4O4/c19-12-13-7(1-9(20)14(12)25-3-6(27)4-25)15(28)8(18(29)30)5-26(13)17-11(22)2-10(21)16(23)24-17/h1-2,5-6,27H,3-4H2,(H2,23,24)(H,29,30)

> <INCHI_KEY>
DYDCPNMLZGFQTM-UHFFFAOYSA-N

> <FORMULA>
C18H12ClF3N4O4

> <MOLECULAR_WEIGHT>
440.76

> <EXACT_MASS>
440.0499171

> <JCHEM_ACCEPTOR_COUNT>
8

> <JCHEM_ATOM_COUNT>
42

> <JCHEM_AVERAGE_POLARIZABILITY>
38.42258860869022

> <JCHEM_BIOAVAILABILITY>
1

> <JCHEM_DONOR_COUNT>
3

> <JCHEM_FORMAL_CHARGE>
0

> <JCHEM_GHOSE_FILTER>
1

> <JCHEM_IUPAC>
1-(6-amino-3,5-difluoropyridin-2-yl)-8-chloro-6-fluoro-7-(3-hydroxyazetidin-1-yl)-4-oxo-1,4-dihydroquinoline-3-carboxylic acid

> <ALOGPS_LOGP>
1.67

> <JCHEM_LOGP>
2.558647892

> <ALOGPS_LOGS>
-3.80

> <JCHEM_MDDR_LIKE_RULE>
0

> <JCHEM_NUMBER_OF_RINGS>
4

> <JCHEM_PHYSIOLOGICAL_CHARGE>
-1

> <JCHEM_PKA>
14.765368190007475

> <JCHEM_PKA_STRONGEST_ACIDIC>
5.61770320158003

> <JCHEM_PKA_STRONGEST_BASIC>
-1.3271392739960501

> <JCHEM_POLAR_SURFACE_AREA>
119.99

> <JCHEM_REFRACTIVITY>
101.3287

> <JCHEM_ROTATABLE_BOND_COUNT>
3

> <JCHEM_RULE_OF_FIVE>
1

> <ALOGPS_SOLUBILITY>
6.99e-02 g/l

> <JCHEM_TRADITIONAL_IUPAC>
delafloxacin

> <JCHEM_VEBER_RULE>
0

$$$$

  Mrv1909 12181903342D          

 37 40  0  0  0  0            999 V2000
   -2.1432    1.4290    0.0000 C   0  0  0  0  0  0  0  0  0  0  0  0
   -2.8577    1.0165    0.0000 C   0  0  0  0  0  0  0  0  0  0  0  0
   -2.8577    0.1915    0.0000 C   0  0  0  0  0  0  0  0  0  0  0  0
   -2.1433   -0.2209    0.0000 C   0  0  0  0  0  0  0  0  0  0  0  0
   -1.4289    0.1915    0.0000 C   0  0  0  0  0  0  0  0  0  0  0  0
   -1.4289    1.0165    0.0000 C   0  0  0  0  0  0  0  0  0  0  0  0
   -0.7143    1.4290    0.0000 C   0  0  0  0  0  0  0  0  0  0  0  0
   -0.7144   -0.2209    0.0000 C   0  0  0  0  0  0  0  0  0  0  0  0
    0.0000    0.1914    0.0000 C   0  0  2  0  0  0  0  0  0  0  0  0
    0.0000    1.0164    0.0000 C   0  0  0  0  0  0  0  0  0  0  0  0
    0.7145    1.4289    0.0000 C   0  0  0  0  0  0  0  0  0  0  0  0
    0.7144   -0.2210    0.0000 C   0  0  0  0  0  0  0  0  0  0  0  0
    1.4289    0.2209    0.0000 C   0  0  2  0  0  0  0  0  0  0  0  0
    1.4289    1.0459    0.0000 C   0  0  1  0  0  0  0  0  0  0  0  0
    2.1435    1.4584    0.0000 C   0  0  0  0  0  0  0  0  0  0  0  0
    2.1434   -0.1916    0.0000 C   0  0  1  0  0  0  0  0  0  0  0  0
    2.8577    0.2208    0.0000 C   0  0  0  0  0  0  0  0  0  0  0  0
    2.8577    1.0458    0.0000 C   0  0  0  0  0  0  0  0  0  0  0  0
   -2.1432    2.2540    0.0000 O   0  0  0  0  0  0  0  0  0  0  0  0
   -0.7143    2.2540    0.0000 O   0  0  0  0  0  0  0  0  0  0  0  0
    0.7145    2.2539    0.0000 O   0  0  0  0  0  0  0  0  0  0  0  0
    2.1435    2.2834    0.0000 O   0  0  0  0  0  0  0  0  0  0  0  0
    3.5723    1.4583    0.0000 C   0  0  0  0  0  0  0  0  0  0  0  0
    3.5723    2.2833    0.0000 O   0  0  0  0  0  0  0  0  0  0  0  0
    4.2867    1.0458    0.0000 N   0  0  0  0  0  0  0  0  0  0  0  0
    3.5722   -0.1916    0.0000 O   0  0  0  0  0  0  0  0  0  0  0  0
    2.1434   -1.0166    0.0000 N   0  0  0  0  0  0  0  0  0  0  0  0
    2.8577   -1.4292    0.0000 C   0  0  0  0  0  0  0  0  0  0  0  0
    1.4289   -1.4291    0.0000 C   0  0  0  0  0  0  0  0  0  0  0  0
    1.4289   -0.6040    0.0000 H   0  0  0  0  0  0  0  0  0  0  0  0
    0.0000   -0.6335    0.0000 H   0  0  0  0  0  0  0  0  0  0  0  0
   -2.1433   -1.0459    0.0000 C   0  0  0  0  0  0  0  0  0  0  0  0
   -2.8577   -1.4584    0.0000 N   0  0  0  0  0  0  0  0  0  0  0  0
   -3.5722   -1.0459    0.0000 O   0  0  0  0  0  0  0  0  0  0  0  0
   -4.2867   -1.4583    0.0000 C   0  0  0  0  0  0  0  0  0  0  0  0
   -2.8577   -2.2834    0.0000 C   0  0  0  0  0  0  0  0  0  0  0  0
    1.4290    1.8708    0.0000 O   0  0  0  0  0  0  0  0  0  0  0  0
  1  2  1  0  0  0  0
  2  3  2  0  0  0  0
  3  4  1  0  0  0  0
  4  5  2  0  0  0  0
  1  6  2  0  0  0  0
  7  6  1  0  0  0  0
  6  5  1  0  0  0  0
  5  8  1  0  0  0  0
  8  9  1  0  0  0  0
  7 10  1  0  0  0  0
 11 10  2  0  0  0  0
 10  9  1  0  0  0  0
  9 12  1  0  0  0  0
 12 13  1  0  0  0  0
 11 14  1  0  0  0  0
 15 14  1  0  0  0  0
 14 13  1  0  0  0  0
 13 16  1  0  0  0  0
 16 17  1  0  0  0  0
 17 18  2  0  0  0  0
 15 18  1  0  0  0  0
  1 19  1  0  0  0  0
  7 20  2  0  0  0  0
 11 21  1  0  0  0  0
 15 22  2  0  0  0  0
 18 23  1  0  0  0  0
 23 24  2  0  0  0  0
 23 25  1  0  0  0  0
 17 26  1  0  0  0  0
 16 27  1  1  0  0  0
 27 28  1  0  0  0  0
 27 29  1  0  0  0  0
 13 30  1  1  0  0  0
  9 31  1  1  0  0  0
  4 32  1  0  0  0  0
 32 33  1  0  0  0  0
 33 34  1  0  0  0  0
 34 35  1  0  0  0  0
 33 36  1  0  0  0  0
 14 37  1  1  0  0  0
M  END
> <DATABASE_ID>
DB12035

> <DATABASE_NAME>
drugbank

> <SMILES>
[H][C@@]12CC3=C(CN(C)OC)C=CC(O)=C3C(=O)C1=C(O)[C@]1(O)C(=O)C(C(N)=O)=C(O)[C@@H](N(C)C)[C@]1([H])C2

> <INCHI_IDENTIFIER>
InChI=1S/C24H29N3O8/c1-26(2)18-13-8-11-7-12-10(9-27(3)35-4)5-6-14(28)16(12)19(29)15(11)21(31)24(13,34)22(32)17(20(18)30)23(25)33/h5-6,11,13,18,28,30-31,34H,7-9H2,1-4H3,(H2,25,33)/t11-,13-,18-,24-/m0/s1

> <INCHI_KEY>
PQJQFLNBMSCUSH-SBAJWEJLSA-N

> <FORMULA>
C24H29N3O8

> <MOLECULAR_WEIGHT>
487.509

> <EXACT_MASS>
487.195464906

> <JCHEM_ACCEPTOR_COUNT>
10

> <JCHEM_ATOM_COUNT>
64

> <JCHEM_AVERAGE_NEUTRAL_MICROSPECIES_CHARGE>
-0.2924061506730845

> <JCHEM_AVERAGE_POLARIZABILITY>
49.313123596887635

> <JCHEM_BIOAVAILABILITY>
1

> <JCHEM_DONOR_COUNT>
5

> <JCHEM_FORMAL_CHARGE>
0

> <JCHEM_GHOSE_FILTER>
0

> <JCHEM_IUPAC>
(4S,4aS,5aR,12aS)-4-(dimethylamino)-3,10,12,12a-tetrahydroxy-7-{[methoxy(methyl)amino]methyl}-1,11-dioxo-1,4,4a,5,5a,6,11,12a-octahydrotetracene-2-carboxamide

> <ALOGPS_LOGP>
-0.17

> <JCHEM_LOGP>
-3.0651520566519834

> <ALOGPS_LOGS>
-2.39

> <JCHEM_MDDR_LIKE_RULE>
0

> <JCHEM_NEUTRAL_CHARGE>
0

> <JCHEM_NUMBER_OF_RINGS>
4

> <JCHEM_PHYSIOLOGICAL_CHARGE>
0

> <JCHEM_PKA>
7.445707368481895

> <JCHEM_PKA_STRONGEST_ACIDIC>
3.305013701653303

> <JCHEM_PKA_STRONGEST_BASIC>
8.68717913071451

> <JCHEM_POLAR_SURFACE_AREA>
173.85999999999999

> <JCHEM_REFRACTIVITY>
127.60649999999994

> <JCHEM_ROTATABLE_BOND_COUNT>
5

> <JCHEM_RULE_OF_FIVE>
1

> <ALOGPS_SOLUBILITY>
2.01e+00 g/l

> <JCHEM_TRADITIONAL_IUPAC>
5-(2,4-dihydroxy-5-isopropylphenyl)-4-(1-methylindol-5-yl)-2H-1,2,4-triazol-3-one

> <JCHEM_VEBER_RULE>
0

> <DRUGBANK_ID>
DB12035

> <DRUG_GROUPS>
approved; investigational

> <GENERIC_NAME>
Sarecycline

> <SYNONYMS>
Sareciclina; Sarecycline; Sarécycline; Sarecyclinum

> <PRODUCTS>
Seysara

> <SALTS>
Sarecycline hydrochloride

$$$$
444022
  -OEChem-02212014233D

 70 74  0     1  0  0  0  0  0999 V2000
   -6.1117    1.9850    1.0571 S   0  0  0  0  0  0  0  0  0  0  0  0
    2.7266    0.3004    1.0009 S   0  0  0  0  0  0  0  0  0  0  0  0
   -5.7682    3.3867    1.1951 O   0  0  0  0  0  0  0  0  0  0  0  0
   -6.9754    1.3402    2.0287 O   0  0  0  0  0  0  0  0  0  0  0  0
   -7.7002   -1.4478   -1.0428 O   0  0  0  0  0  0  0  0  0  0  0  0
   -3.4222   -1.8207   -0.3558 O   0  0  0  0  0  0  0  0  0  0  0  0
   -3.8437   -0.3203   -2.0618 O   0  0  0  0  0  0  0  0  0  0  0  0
   -1.1456   -1.8321   -1.1249 O   0  0  0  0  0  0  0  0  0  0  0  0
    2.8519   -3.5383   -1.1579 O   0  0  0  0  0  0  0  0  0  0  0  0
   -0.6769   -2.7442    0.9457 O   0  0  0  0  0  0  0  0  0  0  0  0
    6.1063   -0.6950    1.9104 O   0  0  0  0  0  0  0  0  0  0  0  0
   -6.1589    0.3170   -0.7743 N   0  0  0  0  0  0  0  0  0  0  0  0
    1.9343   -2.1153    0.4862 N   0  0  0  0  0  0  0  0  0  0  0  0
    5.0228   -1.5084    0.0286 N   0  0  0  0  0  0  0  0  0  0  0  0
    8.2866   -0.0314    0.3490 N   0  0  0  0  0  0  0  0  0  0  0  0
   -4.5631    0.9869    0.8828 C   0  0  0  0  0  0  0  0  0  0  0  0
   -6.7060    1.6712   -0.5976 C   0  0  1  0  0  0  0  0  0  0  0  0
   -5.0503   -0.1881    0.0130 C   0  0  2  0  0  0  0  0  0  0  0  0
   -8.0930    1.0665   -0.8448 C   0  0  0  0  0  0  0  0  0  0  0  0
   -7.3662   -0.2879   -0.9565 C   0  0  0  0  0  0  0  0  0  0  0  0
   -4.0824    0.5218    2.2579 C   0  0  0  0  0  0  0  0  0  0  0  0
   -3.4811    1.8500    0.2153 C   0  0  0  0  0  0  0  0  0  0  0  0
    2.8647   -1.4754    1.4209 C   0  0  1  0  0  0  0  0  0  0  0  0
   -4.0478   -0.7584   -0.9378 C   0  0  0  0  0  0  0  0  0  0  0  0
    0.9117   -1.3098   -0.1500 C   0  0  2  0  0  0  0  0  0  0  0  0
    0.9424    0.0852    0.5108 C   0  0  0  0  0  0  0  0  0  0  0  0
    3.9912   -2.2619    0.7368 C   0  0  1  0  0  0  0  0  0  0  0  0
    2.8866   -2.8401   -0.1702 C   0  0  0  0  0  0  0  0  0  0  0  0
    0.5645    1.1827   -0.4855 C   0  0  0  0  0  0  0  0  0  0  0  0
    0.0863    0.2084    1.7786 C   0  0  0  0  0  0  0  0  0  0  0  0
   -0.3802   -2.0515   -0.0182 C   0  0  0  0  0  0  0  0  0  0  0  0
   -2.4257   -2.4843   -1.1510 C   0  0  0  0  0  0  0  0  0  0  0  0
    6.0127   -0.7743    0.6865 C   0  0  0  0  0  0  0  0  0  0  0  0
    6.9587   -0.0581   -0.2711 C   0  0  1  0  0  0  0  0  0  0  0  0
    6.4469    1.3293   -0.5989 C   0  0  0  0  0  0  0  0  0  0  0  0
    5.5985    1.5200   -1.6896 C   0  0  0  0  0  0  0  0  0  0  0  0
    6.8236    2.4163    0.1901 C   0  0  0  0  0  0  0  0  0  0  0  0
    5.1270    2.7976   -1.9915 C   0  0  0  0  0  0  0  0  0  0  0  0
    6.3518    3.6938   -0.1118 C   0  0  0  0  0  0  0  0  0  0  0  0
    5.5035    3.8844   -1.2025 C   0  0  0  0  0  0  0  0  0  0  0  0
   -6.3368    2.3753   -1.3485 H   0  0  0  0  0  0  0  0  0  0  0  0
   -5.4594   -0.9990    0.6299 H   0  0  0  0  0  0  0  0  0  0  0  0
   -8.8028    1.1274   -0.0167 H   0  0  0  0  0  0  0  0  0  0  0  0
   -8.5764    1.3812   -1.7736 H   0  0  0  0  0  0  0  0  0  0  0  0
   -3.1968   -0.1145    2.1706 H   0  0  0  0  0  0  0  0  0  0  0  0
   -4.8507   -0.0581    2.7806 H   0  0  0  0  0  0  0  0  0  0  0  0
   -3.8302    1.3752    2.8967 H   0  0  0  0  0  0  0  0  0  0  0  0
   -3.2234    2.7133    0.8390 H   0  0  0  0  0  0  0  0  0  0  0  0
   -2.5624    1.2786    0.0602 H   0  0  0  0  0  0  0  0  0  0  0  0
   -3.8091    2.2375   -0.7550 H   0  0  0  0  0  0  0  0  0  0  0  0
    2.6640   -1.7347    2.4644 H   0  0  0  0  0  0  0  0  0  0  0  0
    1.1782   -1.2512   -1.2145 H   0  0  0  0  0  0  0  0  0  0  0  0
    4.4360   -3.0352    1.3754 H   0  0  0  0  0  0  0  0  0  0  0  0
   -0.4559    1.0378   -0.8543 H   0  0  0  0  0  0  0  0  0  0  0  0
    1.2247    1.1820   -1.3609 H   0  0  0  0  0  0  0  0  0  0  0  0
    0.6134    2.1783   -0.0298 H   0  0  0  0  0  0  0  0  0  0  0  0
    0.3213   -0.5649    2.5182 H   0  0  0  0  0  0  0  0  0  0  0  0
   -0.9767    0.1180    1.5375 H   0  0  0  0  0  0  0  0  0  0  0  0
    0.2207    1.1841    2.2606 H   0  0  0  0  0  0  0  0  0  0  0  0
    5.0298   -1.5055   -0.9887 H   0  0  0  0  0  0  0  0  0  0  0  0
   -2.7503   -2.5534   -2.1957 H   0  0  0  0  0  0  0  0  0  0  0  0
   -2.3339   -3.5148   -0.7883 H   0  0  0  0  0  0  0  0  0  0  0  0
    7.0490   -0.6390   -1.1975 H   0  0  0  0  0  0  0  0  0  0  0  0
    8.6050   -0.9864    0.5115 H   0  0  0  0  0  0  0  0  0  0  0  0
    8.9572    0.3775   -0.3016 H   0  0  0  0  0  0  0  0  0  0  0  0
    5.2964    0.6819   -2.3118 H   0  0  0  0  0  0  0  0  0  0  0  0
    7.4684    2.2998    1.0565 H   0  0  0  0  0  0  0  0  0  0  0  0
    4.4655    2.9458   -2.8400 H   0  0  0  0  0  0  0  0  0  0  0  0
    6.6413    4.5397    0.5049 H   0  0  0  0  0  0  0  0  0  0  0  0
    5.1350    4.8789   -1.4366 H   0  0  0  0  0  0  0  0  0  0  0  0
  1  3  2  0  0  0  0
  1  4  2  0  0  0  0
  1 16  1  0  0  0  0
  1 17  1  0  0  0  0
  2 23  1  0  0  0  0
  2 26  1  0  0  0  0
  5 20  2  0  0  0  0
  6 24  1  0  0  0  0
  6 32  1  0  0  0  0
  7 24  2  0  0  0  0
  8 31  1  0  0  0  0
  8 32  1  0  0  0  0
  9 28  2  0  0  0  0
 10 31  2  0  0  0  0
 11 33  2  0  0  0  0
 12 17  1  0  0  0  0
 12 18  1  0  0  0  0
 12 20  1  0  0  0  0
 13 23  1  0  0  0  0
 13 25  1  0  0  0  0
 13 28  1  0  0  0  0
 14 27  1  0  0  0  0
 14 33  1  0  0  0  0
 14 60  1  0  0  0  0
 15 34  1  0  0  0  0
 15 64  1  0  0  0  0
 15 65  1  0  0  0  0
 16 18  1  0  0  0  0
 16 21  1  0  0  0  0
 16 22  1  0  0  0  0
 17 19  1  0  0  0  0
 17 41  1  0  0  0  0
 18 24  1  0  0  0  0
 18 42  1  0  0  0  0
 19 20  1  0  0  0  0
 19 43  1  0  0  0  0
 19 44  1  0  0  0  0
 21 45  1  0  0  0  0
 21 46  1  0  0  0  0
 21 47  1  0  0  0  0
 22 48  1  0  0  0  0
 22 49  1  0  0  0  0
 22 50  1  0  0  0  0
 23 27  1  0  0  0  0
 23 51  1  0  0  0  0
 25 26  1  0  0  0  0
 25 31  1  0  0  0  0
 25 52  1  0  0  0  0
 26 29  1  0  0  0  0
 26 30  1  0  0  0  0
 27 28  1  0  0  0  0
 27 53  1  0  0  0  0
 29 54  1  0  0  0  0
 29 55  1  0  0  0  0
 29 56  1  0  0  0  0
 30 57  1  0  0  0  0
 30 58  1  0  0  0  0
 30 59  1  0  0  0  0
 32 61  1  0  0  0  0
 32 62  1  0  0  0  0
 33 34  1  0  0  0  0
 34 35  1  0  0  0  0
 34 63  1  0  0  0  0
 35 36  2  0  0  0  0
 35 37  1  0  0  0  0
 36 38  1  0  0  0  0
 36 66  1  0  0  0  0
 37 39  2  0  0  0  0
 37 67  1  0  0  0  0
 38 40  2  0  0  0  0
 38 68  1  0  0  0  0
 39 40  1  0  0  0  0
 39 69  1  0  0  0  0
 40 70  1  0  0  0  0
M  END
> <DATABASE_ID>
DB12127

> <DATABASE_NAME>
drugbank

> <ORIGINAL_SOURCE>
PUBCHEM

> <ORIGINAL_SOURCE_URL>
https://pubchem.ncbi.nlm.nih.gov/rest/pug/compound/inchikey/OPYGFNJSCUDTBT-PMLPCWDUSA-N/SDF?record_type=3d

> <SMILES>
[H][C@]12SC(C)(C)[C@@H](N1C(=O)[C@H]2NC(=O)[C@H](N)C1=CC=CC=C1)C(=O)OCOC(=O)[C@@H]1N2C(=O)C[C@@]2([H])S(=O)(=O)C1(C)C

> <INCHI_IDENTIFIER>
InChI=1S/C25H30N4O9S2/c1-24(2)17(29-20(32)16(21(29)39-24)27-19(31)15(26)12-8-6-5-7-9-12)22(33)37-11-38-23(34)18-25(3,4)40(35,36)14-10-13(30)28(14)18/h5-9,14-18,21H,10-11,26H2,1-4H3,(H,27,31)/t14-,15-,16-,17+,18+,21-/m1/s1

> <INCHI_KEY>
OPYGFNJSCUDTBT-PMLPCWDUSA-N

> <FORMULA>
C25H30N4O9S2

> <MOLECULAR_WEIGHT>
594.65

> <EXACT_MASS>
594.14542091

> <JCHEM_ACCEPTOR_COUNT>
8

> <JCHEM_ATOM_COUNT>
70

> <JCHEM_AVERAGE_NEUTRAL_MICROSPECIES_CHARGE>
0.6285493755671763

> <JCHEM_AVERAGE_POLARIZABILITY>
58.75508104977183

> <JCHEM_BIOAVAILABILITY>
1

> <JCHEM_DONOR_COUNT>
2

> <JCHEM_FORMAL_CHARGE>
0

> <JCHEM_GHOSE_FILTER>
0

> <JCHEM_IUPAC>
[(2S,5R,6R)-6-[(2R)-2-amino-2-phenylacetamido]-3,3-dimethyl-7-oxo-4-thia-1-azabicyclo[3.2.0]heptane-2-carbonyloxy]methyl (2S,5R)-3,3-dimethyl-4,4,7-trioxo-4lambda6-thia-1-azabicyclo[3.2.0]heptane-2-carboxylate

> <ALOGPS_LOGP>
1.55

> <JCHEM_LOGP>
-0.4024037763333319

> <ALOGPS_LOGS>
-3.32

> <JCHEM_MDDR_LIKE_RULE>
1

> <JCHEM_NEUTRAL_CHARGE>
1

> <JCHEM_NUMBER_OF_RINGS>
5

> <JCHEM_PHYSIOLOGICAL_CHARGE>
1

> <JCHEM_PKA>
14.348842544147177

> <JCHEM_PKA_STRONGEST_ACIDIC>
11.707901143576063

> <JCHEM_PKA_STRONGEST_BASIC>
7.228474831473878

> <JCHEM_POLAR_SURFACE_AREA>
182.47999999999996

> <JCHEM_REFRACTIVITY>
138.1167

> <JCHEM_ROTATABLE_BOND_COUNT>
9

> <JCHEM_RULE_OF_FIVE>
0

> <ALOGPS_SOLUBILITY>
2.83e-01 g/l

> <JCHEM_TRADITIONAL_IUPAC>
(5Z,7E)-deca-5,7,9-trien-2-one

> <JCHEM_VEBER_RULE>
0

$$$$

  Mrv1909 12181921482D          

 42 46  0  0  0  0            999 V2000
   -5.1480   -0.4480    0.0000 C   0  0  0  0  0  0  0  0  0  0  0  0
   -4.3609   -0.2004    0.0000 C   0  0  0  0  0  0  0  0  0  0  0  0
   -4.3513    0.6247    0.0000 N   0  0  0  0  0  0  0  0  0  0  0  0
   -5.1359    0.8881    0.0000 C   0  0  0  0  0  0  0  0  0  0  0  0
   -5.6243    0.2241    0.0000 C   0  0  0  0  0  0  0  0  0  0  0  0
   -3.6364    1.0323    0.0000 C   0  0  0  0  0  0  0  0  0  0  0  0
   -2.9243    0.6187    0.0000 C   0  0  0  0  0  0  0  0  0  0  0  0
   -2.2112    1.0302    0.0000 N   0  0  0  0  0  0  0  0  0  0  0  0
   -1.4991    0.6166    0.0000 C   0  0  0  0  0  0  0  0  0  0  0  0
    2.7778    0.6138    0.0000 C   0  0  1  0  0  0  0  0  0  0  0  0
    2.7766   -0.2112    0.0000 C   0  0  2  0  0  0  0  0  0  0  0  0
    3.4882   -0.6208    0.0000 C   0  0  1  0  0  0  0  0  0  0  0  0
    4.2009   -0.2133    0.0000 C   0  0  0  0  0  0  0  0  0  0  0  0
    4.2021    0.6117    0.0000 C   0  0  0  0  0  0  0  0  0  0  0  0
    3.4906    1.0295    0.0000 C   0  0  0  0  0  0  0  0  0  0  0  0
    1.3526    0.6159    0.0000 C   0  0  0  0  0  0  0  0  0  0  0  0
    1.3514   -0.2091    0.0000 C   0  0  2  0  0  0  0  0  0  0  0  0
    2.0629   -0.6186    0.0000 C   0  0  0  0  0  0  0  0  0  0  0  0
    2.0653    1.0317    0.0000 C   0  0  0  0  0  0  0  0  0  0  0  0
   -0.0715    0.6180    0.0000 C   0  0  0  0  0  0  0  0  0  0  0  0
   -0.0727   -0.2070    0.0000 C   0  0  0  0  0  0  0  0  0  0  0  0
    0.6388   -0.6165    0.0000 C   0  0  0  0  0  0  0  0  0  0  0  0
    0.6412    1.0338    0.0000 C   0  0  0  0  0  0  0  0  0  0  0  0
   -1.5014   -0.2108    0.0000 C   0  0  0  0  0  0  0  0  0  0  0  0
   -0.7871   -0.6249    0.0000 C   0  0  0  0  0  0  0  0  0  0  0  0
   -0.7864    1.0284    0.0000 C   0  0  0  0  0  0  0  0  0  0  0  0
   -2.9324   -0.2022    0.0000 O   0  0  0  0  0  0  0  0  0  0  0  0
    4.9123    1.0279    0.0000 C   0  0  0  0  0  0  0  0  0  0  0  0
    5.6243    0.6143    0.0000 N   0  0  0  0  0  0  0  0  0  0  0  0
    4.9093    1.8530    0.0000 O   0  0  0  0  0  0  0  0  0  0  0  0
    3.4869   -1.4459    0.0000 N   0  0  0  0  0  0  0  0  0  0  0  0
   -0.7964   -1.4473    0.0000 F   0  0  0  0  0  0  0  0  0  0  0  0
   -0.7915    1.8573    0.0000 O   0  0  0  0  0  0  0  0  0  0  0  0
    0.6379    1.8594    0.0000 O   0  0  0  0  0  0  0  0  0  0  0  0
    2.0589    1.8573    0.0000 O   0  0  0  0  0  0  0  0  0  0  0  0
    3.4841    1.8552    0.0000 O   0  0  0  0  0  0  0  0  0  0  0  0
    2.7708    1.4395    0.0000 O   0  0  0  0  0  0  0  0  0  0  0  0
    4.9098   -0.6266    0.0000 O   0  0  0  0  0  0  0  0  0  0  0  0
    4.2008   -1.8594    0.0000 C   0  0  0  0  0  0  0  0  0  0  0  0
    2.7717   -1.8573    0.0000 C   0  0  0  0  0  0  0  0  0  0  0  0
    2.7671   -1.0359    0.0000 H   0  0  0  0  0  0  0  0  0  0  0  0
    1.3419   -1.0338    0.0000 H   0  0  0  0  0  0  0  0  0  0  0  0
  4  5  1  0  0  0  0
  5  1  1  0  0  0  0
  1  2  1  0  0  0  0
 20 23  1  0  0  0  0
 21 22  1  0  0  0  0
 22 17  1  0  0  0  0
 16 23  1  0  0  0  0
  3  6  1  0  0  0  0
  9 24  2  0  0  0  0
 24 25  1  0  0  0  0
 25 21  2  0  0  0  0
  6  7  1  0  0  0  0
 20 26  2  0  0  0  0
 26  9  1  0  0  0  0
 10 15  1  0  0  0  0
  7 27  2  0  0  0  0
 11 12  1  0  0  0  0
 14 28  1  0  0  0  0
 12 13  1  0  0  0  0
 28 29  1  0  0  0  0
 13 14  2  0  0  0  0
 28 30  2  0  0  0  0
 14 15  1  0  0  0  0
 12 31  1  1  0  0  0
 16 17  1  0  0  0  0
 25 32  1  0  0  0  0
  2  3  1  0  0  0  0
 26 33  1  0  0  0  0
  7  8  1  0  0  0  0
 23 34  2  0  0  0  0
  3  4  1  0  0  0  0
 19 35  1  0  0  0  0
  8  9  1  0  0  0  0
 15 36  2  0  0  0  0
 16 19  2  0  0  0  0
 10 37  1  1  0  0  0
 17 18  1  0  0  0  0
 13 38  1  0  0  0  0
 18 11  1  0  0  0  0
 31 39  1  0  0  0  0
 10 19  1  0  0  0  0
 31 40  1  0  0  0  0
 20 21  1  0  0  0  0
 11 41  1  1  0  0  0
 10 11  1  0  0  0  0
 17 42  1  1  0  0  0
M  END
> <DATABASE_ID>
DB12329

> <DATABASE_NAME>
drugbank

> <SMILES>
[H][C@@]12CC3=C(F)C=C(NC(=O)CN4CCCC4)C(O)=C3C(=O)C1=C(O)[C@]1(O)C(=O)C(C(N)=O)=C(O)[C@@H](N(C)C)[C@]1([H])C2

> <INCHI_IDENTIFIER>
InChI=1S/C27H31FN4O8/c1-31(2)20-13-8-11-7-12-14(28)9-15(30-16(33)10-32-5-3-4-6-32)21(34)18(12)22(35)17(11)24(37)27(13,40)25(38)19(23(20)36)26(29)39/h9,11,13,20,34,36-37,40H,3-8,10H2,1-2H3,(H2,29,39)(H,30,33)/t11-,13-,20-,27-/m0/s1

> <INCHI_KEY>
HLFSMUUOKPBTSM-ISIOAQNYSA-N

> <FORMULA>
C27H31FN4O8

> <MOLECULAR_WEIGHT>
558.563

> <EXACT_MASS>
558.212592137

> <JCHEM_ACCEPTOR_COUNT>
10

> <JCHEM_ATOM_COUNT>
71

> <JCHEM_AVERAGE_NEUTRAL_MICROSPECIES_CHARGE>
-0.6218827123212443

> <JCHEM_AVERAGE_POLARIZABILITY>
53.60088599006165

> <JCHEM_BIOAVAILABILITY>
0

> <JCHEM_DONOR_COUNT>
6

> <JCHEM_FORMAL_CHARGE>
0

> <JCHEM_GHOSE_FILTER>
0

> <JCHEM_IUPAC>
(4S,4aS,5aR,12aS)-4-(dimethylamino)-7-fluoro-3,10,12,12a-tetrahydroxy-1,11-dioxo-9-[2-(pyrrolidin-1-yl)acetamido]-1,4,4a,5,5a,6,11,12a-octahydrotetracene-2-carboxamide

> <ALOGPS_LOGP>
0.24

> <JCHEM_LOGP>
-3.4926462982699666

> <ALOGPS_LOGS>
-2.82

> <JCHEM_MDDR_LIKE_RULE>
0

> <JCHEM_NEUTRAL_CHARGE>
-1

> <JCHEM_NUMBER_OF_RINGS>
5

> <JCHEM_PHYSIOLOGICAL_CHARGE>
-1

> <JCHEM_PKA>
7.145823482880628

> <JCHEM_PKA_STRONGEST_ACIDIC>
2.962651711231324

> <JCHEM_PKA_STRONGEST_BASIC>
9.004496224065633

> <JCHEM_POLAR_SURFACE_AREA>
193.72999999999996

> <JCHEM_REFRACTIVITY>
144.16099999999994

> <JCHEM_ROTATABLE_BOND_COUNT>
5

> <JCHEM_RULE_OF_FIVE>
0

> <ALOGPS_SOLUBILITY>
8.38e-01 g/l

> <JCHEM_TRADITIONAL_IUPAC>
doravirine

> <JCHEM_VEBER_RULE>
0

> <DRUGBANK_ID>
DB12329

> <DRUG_GROUPS>
approved; investigational

> <GENERIC_NAME>
Eravacycline

> <SYNONYMS>
Eravacyclina; Eravacycline; Eravacyclinum

> <PRODUCTS>
Xerava

> <SALTS>
Eravacycline dihydrochloride

$$$$
171758
  -OEChem-10051722443D

 45 47  0     1  0  0  0  0  0999 V2000
   -0.8317    1.1481    0.9121 S   0  0  0  0  0  0  0  0  0  0  0  0
    2.6823    3.6273   -0.9195 S   0  0  0  0  0  0  0  0  0  0  0  0
   -0.3688   -2.9269    0.9002 O   0  0  0  0  0  0  0  0  0  0  0  0
   -2.0381   -2.1486   -1.7511 O   0  0  0  0  0  0  0  0  0  0  0  0
   -5.2014    1.3128   -0.9273 O   0  0  0  0  0  0  0  0  0  0  0  0
   -5.0880   -0.7293    0.0790 O   0  0  0  0  0  0  0  0  0  0  0  0
    2.0162   -1.3246    1.4950 O   0  0  0  0  0  0  0  0  0  0  0  0
    4.3723   -2.2385   -0.5031 O   0  0  0  0  0  0  0  0  0  0  0  0
    5.3028   -0.2546    0.0903 O   0  0  0  0  0  0  0  0  0  0  0  0
   -2.4335   -0.7161    0.0825 N   0  0  0  0  0  0  0  0  0  0  0  0
    0.6208   -1.0824   -0.3416 N   0  0  0  0  0  0  0  0  0  0  0  0
   -1.3706   -0.5924    1.0844 C   0  0  1  0  0  0  0  0  0  0  0  0
   -0.5849   -1.6416    0.2858 C   0  0  2  0  0  0  0  0  0  0  0  0
   -3.0637    0.4854   -0.4260 C   0  0  2  0  0  0  0  0  0  0  0  0
   -2.5496    1.6715    0.4181 C   0  0  0  0  0  0  0  0  0  0  0  0
   -1.7884   -1.6481   -0.6779 C   0  0  0  0  0  0  0  0  0  0  0  0
   -3.3502    1.9346    1.7009 C   0  0  0  0  0  0  0  0  0  0  0  0
   -2.4595    2.9514   -0.4150 C   0  0  0  0  0  0  0  0  0  0  0  0
   -4.5416    0.2620   -0.3816 C   0  0  0  0  0  0  0  0  0  0  0  0
    1.8334   -0.9724    0.3310 C   0  0  0  0  0  0  0  0  0  0  0  0
   -0.1074   -3.9964    0.0036 C   0  0  0  0  0  0  0  0  0  0  0  0
    2.9358   -0.3505   -0.5246 C   0  0  1  0  0  0  0  0  0  0  0  0
    2.8990    1.1539   -0.3818 C   0  0  0  0  0  0  0  0  0  0  0  0
    4.3240   -0.9044   -0.2500 C   0  0  0  0  0  0  0  0  0  0  0  0
    3.1135    1.8107    0.8452 C   0  0  0  0  0  0  0  0  0  0  0  0
    2.6541    1.9918   -1.4259 C   0  0  0  0  0  0  0  0  0  0  0  0
    3.0234    3.1772    0.6971 C   0  0  0  0  0  0  0  0  0  0  0  0
   -1.6971   -0.8908    2.0849 H   0  0  0  0  0  0  0  0  0  0  0  0
   -2.7715    0.5821   -1.4804 H   0  0  0  0  0  0  0  0  0  0  0  0
   -2.8668    2.6956    2.3254 H   0  0  0  0  0  0  0  0  0  0  0  0
   -4.3544    2.3085    1.4723 H   0  0  0  0  0  0  0  0  0  0  0  0
   -3.4698    1.0302    2.3080 H   0  0  0  0  0  0  0  0  0  0  0  0
   -2.0065    3.7708    0.1555 H   0  0  0  0  0  0  0  0  0  0  0  0
   -1.8607    2.8057   -1.3217 H   0  0  0  0  0  0  0  0  0  0  0  0
   -3.4523    3.2892   -0.7305 H   0  0  0  0  0  0  0  0  0  0  0  0
    0.5771   -0.7495   -1.3019 H   0  0  0  0  0  0  0  0  0  0  0  0
    0.2924   -4.8343    0.5812 H   0  0  0  0  0  0  0  0  0  0  0  0
   -1.0342   -4.3238   -0.4749 H   0  0  0  0  0  0  0  0  0  0  0  0
    0.6310   -3.7178   -0.7537 H   0  0  0  0  0  0  0  0  0  0  0  0
    2.7360   -0.5982   -1.5778 H   0  0  0  0  0  0  0  0  0  0  0  0
   -6.1738    1.1856   -0.9067 H   0  0  0  0  0  0  0  0  0  0  0  0
    3.3229    1.3329    1.7937 H   0  0  0  0  0  0  0  0  0  0  0  0
    2.4580    1.7454   -2.4602 H   0  0  0  0  0  0  0  0  0  0  0  0
    3.1411    3.9328    1.4610 H   0  0  0  0  0  0  0  0  0  0  0  0
    5.2710   -2.6050   -0.3604 H   0  0  0  0  0  0  0  0  0  0  0  0
  1 12  1  0  0  0  0
  1 15  1  0  0  0  0
  2 26  1  0  0  0  0
  2 27  1  0  0  0  0
  3 13  1  0  0  0  0
  3 21  1  0  0  0  0
  4 16  2  0  0  0  0
  5 19  1  0  0  0  0
  5 41  1  0  0  0  0
  6 19  2  0  0  0  0
  7 20  2  0  0  0  0
  8 24  1  0  0  0  0
  8 45  1  0  0  0  0
  9 24  2  0  0  0  0
 10 12  1  0  0  0  0
 10 14  1  0  0  0  0
 10 16  1  0  0  0  0
 11 13  1  0  0  0  0
 11 20  1  0  0  0  0
 11 36  1  0  0  0  0
 12 13  1  0  0  0  0
 12 28  1  0  0  0  0
 13 16  1  0  0  0  0
 14 15  1  0  0  0  0
 14 19  1  0  0  0  0
 14 29  1  0  0  0  0
 15 17  1  0  0  0  0
 15 18  1  0  0  0  0
 17 30  1  0  0  0  0
 17 31  1  0  0  0  0
 17 32  1  0  0  0  0
 18 33  1  0  0  0  0
 18 34  1  0  0  0  0
 18 35  1  0  0  0  0
 20 22  1  0  0  0  0
 21 37  1  0  0  0  0
 21 38  1  0  0  0  0
 21 39  1  0  0  0  0
 22 23  1  0  0  0  0
 22 24  1  0  0  0  0
 22 40  1  0  0  0  0
 23 25  1  0  0  0  0
 23 26  2  0  0  0  0
 25 27  2  0  0  0  0
 25 42  1  0  0  0  0
 26 43  1  0  0  0  0
 27 44  1  0  0  0  0
M  END
> <DATABASE_ID>
DB12343

> <DATABASE_NAME>
drugbank

> <ORIGINAL_SOURCE>
PUBCHEM

> <ORIGINAL_SOURCE_URL>
https://pubchem.ncbi.nlm.nih.gov/rest/pug/compound/inchikey/BVCKFLJARNKCSS-DWPRYXJFSA-N/SDF?record_type=3d

> <SMILES>
CO[C@]1(NC(=O)C(C(O)=O)C2=CSC=C2)[C@H]2SC(C)(C)[C@@H](N2C1=O)C(O)=O

> <INCHI_IDENTIFIER>
InChI=1S/C16H18N2O7S2/c1-15(2)9(12(22)23)18-13(24)16(25-3,14(18)27-15)17-10(19)8(11(20)21)7-4-5-26-6-7/h4-6,8-9,14H,1-3H3,(H,17,19)(H,20,21)(H,22,23)/t8?,9-,14+,16-/m0/s1

> <INCHI_KEY>
BVCKFLJARNKCSS-DWPRYXJFSA-N

> <FORMULA>
C16H18N2O7S2

> <MOLECULAR_WEIGHT>
414.45

> <EXACT_MASS>
414.055543276

> <JCHEM_ACCEPTOR_COUNT>
7

> <JCHEM_ATOM_COUNT>
45

> <JCHEM_AVERAGE_POLARIZABILITY>
38.908012682247175

> <JCHEM_BIOAVAILABILITY>
1

> <JCHEM_DONOR_COUNT>
3

> <JCHEM_FORMAL_CHARGE>
0

> <JCHEM_GHOSE_FILTER>
1

> <JCHEM_IUPAC>
(2S,5R,6S)-6-[2-carboxy-2-(thiophen-3-yl)acetamido]-6-methoxy-3,3-dimethyl-7-oxo-4-thia-1-azabicyclo[3.2.0]heptane-2-carboxylic acid

> <ALOGPS_LOGP>
1.13

> <JCHEM_LOGP>
1.2014304629999997

> <ALOGPS_LOGS>
-3.61

> <JCHEM_MDDR_LIKE_RULE>
1

> <JCHEM_NUMBER_OF_RINGS>
3

> <JCHEM_PHYSIOLOGICAL_CHARGE>
-2

> <JCHEM_PKA>
4.115695168574126

> <JCHEM_PKA_STRONGEST_ACIDIC>
3.1049442570630355

> <JCHEM_PKA_STRONGEST_BASIC>
-4.314537920367171

> <JCHEM_POLAR_SURFACE_AREA>
133.24

> <JCHEM_REFRACTIVITY>
94.21889999999999

> <JCHEM_ROTATABLE_BOND_COUNT>
6

> <JCHEM_RULE_OF_FIVE>
1

> <ALOGPS_SOLUBILITY>
1.02e-01 g/l

> <JCHEM_TRADITIONAL_IUPAC>
temocillin

> <JCHEM_VEBER_RULE>
0

$$$$

  Mrv1718010091812102D          

 42 45  0  0  0  0            999 V2000
   -1.0716    1.0614    0.0000 C   0  0  0  0  0  0  0  0  0  0  0  0
   -1.7861    0.6489    0.0000 C   0  0  0  0  0  0  0  0  0  0  0  0
   -1.7861   -0.1760    0.0000 C   0  0  0  0  0  0  0  0  0  0  0  0
   -1.0716   -0.5885    0.0000 C   0  0  0  0  0  0  0  0  0  0  0  0
   -0.3572   -0.1760    0.0000 C   0  0  0  0  0  0  0  0  0  0  0  0
   -0.3572    0.6489    0.0000 C   0  0  0  0  0  0  0  0  0  0  0  0
   -2.5006    1.0614    0.0000 C   0  0  0  0  0  0  0  0  0  0  0  0
   -3.2151    0.6489    0.0000 N   0  0  0  0  0  0  0  0  0  0  0  0
   -3.9295    1.0614    0.0000 C   0  0  0  0  0  0  0  0  0  0  0  0
   -4.6440    0.6489    0.0000 C   0  0  0  0  0  0  0  0  0  0  0  0
   -5.3585    1.0614    0.0000 C   0  0  0  0  0  0  0  0  0  0  0  0
   -5.3585    0.2364    0.0000 C   0  0  0  0  0  0  0  0  0  0  0  0
   -4.4304   -0.1479    0.0000 C   0  0  0  0  0  0  0  0  0  0  0  0
    0.3572    1.0614    0.0000 C   0  0  0  0  0  0  0  0  0  0  0  0
    0.3572   -0.5885    0.0000 C   0  0  0  0  0  0  0  0  0  0  0  0
    1.0716   -0.1760    0.0000 C   0  0  2  0  0  0  0  0  0  0  0  0
    1.0716    0.6489    0.0000 C   0  0  0  0  0  0  0  0  0  0  0  0
    1.7861    1.0614    0.0000 C   0  0  0  0  0  0  0  0  0  0  0  0
    1.7861   -0.5885    0.0000 C   0  0  0  0  0  0  0  0  0  0  0  0
    2.5007   -0.1760    0.0000 C   0  0  2  0  0  0  0  0  0  0  0  0
    2.5007    0.6489    0.0000 C   0  0  1  0  0  0  0  0  0  0  0  0
    3.2151    1.0614    0.0000 C   0  0  0  0  0  0  0  0  0  0  0  0
    3.2151   -0.5885    0.0000 C   0  0  1  0  0  0  0  0  0  0  0  0
    3.9296   -0.1760    0.0000 C   0  0  0  0  0  0  0  0  0  0  0  0
    3.9296    0.6489    0.0000 C   0  0  0  0  0  0  0  0  0  0  0  0
    4.6441    1.0614    0.0000 C   0  0  0  0  0  0  0  0  0  0  0  0
    4.6441    1.8864    0.0000 O   0  0  0  0  0  0  0  0  0  0  0  0
    5.3584    0.6489    0.0000 N   0  0  0  0  0  0  0  0  0  0  0  0
    4.6441   -0.5885    0.0000 O   0  0  0  0  0  0  0  0  0  0  0  0
    3.2151    1.8864    0.0000 O   0  0  0  0  0  0  0  0  0  0  0  0
    3.7985   -1.1719    0.0000 N   0  0  0  0  0  0  0  0  0  0  0  0
    4.6235   -1.1719    0.0000 C   0  0  0  0  0  0  0  0  0  0  0  0
    3.3860   -1.8864    0.0000 C   0  0  0  0  0  0  0  0  0  0  0  0
    2.5007    1.4739    0.0000 O   0  0  0  0  0  0  0  0  0  0  0  0
    1.7861    1.8864    0.0000 O   0  0  0  0  0  0  0  0  0  0  0  0
    0.3572    1.8864    0.0000 O   0  0  0  0  0  0  0  0  0  0  0  0
   -1.0716    1.8864    0.0000 O   0  0  0  0  0  0  0  0  0  0  0  0
   -1.0716   -1.4135    0.0000 N   0  0  0  0  0  0  0  0  0  0  0  0
   -0.3572   -1.8260    0.0000 C   0  0  0  0  0  0  0  0  0  0  0  0
   -1.7861   -1.8260    0.0000 C   0  0  0  0  0  0  0  0  0  0  0  0
    2.5007   -1.1760    0.0000 H   0  0  0  0  0  0  0  0  0  0  0  0
    1.0716   -1.1760    0.0000 H   0  0  0  0  0  0  0  0  0  0  0  0
  1  2  1  0  0  0  0
  2  3  2  0  0  0  0
  3  4  1  0  0  0  0
  4  5  2  0  0  0  0
  1  6  2  0  0  0  0
  2  7  1  0  0  0  0
  7  8  1  0  0  0  0
  8  9  1  0  0  0  0
  9 10  1  0  0  0  0
 10 11  1  0  0  0  0
 10 12  1  0  0  0  0
 10 13  1  0  0  0  0
 14  6  1  0  0  0  0
  6  5  1  0  0  0  0
  5 15  1  0  0  0  0
 15 16  1  0  0  0  0
 14 17  1  0  0  0  0
 18 17  2  0  0  0  0
 17 16  1  0  0  0  0
 16 19  1  0  0  0  0
 19 20  1  0  0  0  0
 18 21  1  0  0  0  0
 22 21  1  0  0  0  0
 21 20  1  0  0  0  0
 20 23  1  0  0  0  0
 23 24  1  0  0  0  0
 24 25  2  0  0  0  0
 22 25  1  0  0  0  0
 25 26  1  0  0  0  0
 26 27  2  0  0  0  0
 26 28  1  0  0  0  0
 24 29  1  0  0  0  0
 22 30  2  0  0  0  0
 23 31  1  1  0  0  0
 31 32  1  0  0  0  0
 31 33  1  0  0  0  0
 21 34  1  1  0  0  0
 18 35  1  0  0  0  0
 14 36  2  0  0  0  0
  1 37  1  0  0  0  0
 38  4  1  0  0  0  0
 38 39  1  0  0  0  0
 38 40  1  0  0  0  0
 20 41  1  1  0  0  0
 16 42  1  1  0  0  0
M  END
> <DATABASE_ID>
DB12455

> <DATABASE_NAME>
drugbank

> <SMILES>
[H][C@@]12CC3=C(C=C(CNCC(C)(C)C)C(O)=C3C(=O)C1=C(O)[C@]1(O)C(=O)C(C(N)=O)=C(O)[C@@H](N(C)C)[C@]1([H])C2)N(C)C

> <INCHI_IDENTIFIER>
InChI=1S/C29H40N4O7/c1-28(2,3)12-31-11-14-10-17(32(4)5)15-8-13-9-16-21(33(6)7)24(36)20(27(30)39)26(38)29(16,40)25(37)18(13)23(35)19(15)22(14)34/h10,13,16,21,31,34,36-37,40H,8-9,11-12H2,1-7H3,(H2,30,39)/t13-,16-,21-,29-/m0/s1

> <INCHI_KEY>
JEECQCWWSTZDCK-IQZGDKDPSA-N

> <FORMULA>
C29H40N4O7

> <MOLECULAR_WEIGHT>
556.66

> <EXACT_MASS>
556.289699644

> <JCHEM_ACCEPTOR_COUNT>
10

> <JCHEM_ATOM_COUNT>
80

> <JCHEM_AVERAGE_POLARIZABILITY>
60.01596721110642

> <JCHEM_BIOAVAILABILITY>
0

> <JCHEM_DONOR_COUNT>
6

> <JCHEM_FORMAL_CHARGE>
0

> <JCHEM_GHOSE_FILTER>
0

> <JCHEM_IUPAC>
(4S,4aS,5aR,12aS)-4,7-bis(dimethylamino)-9-{[(2,2-dimethylpropyl)amino]methyl}-3,10,12,12a-tetrahydroxy-1,11-dioxo-1,4,4a,5,5a,6,11,12a-octahydrotetracene-2-carboxamide

> <ALOGPS_LOGP>
0.94

> <JCHEM_LOGP>
-2.179127676827586

> <ALOGPS_LOGS>
-3.42

> <JCHEM_MDDR_LIKE_RULE>
1

> <JCHEM_NUMBER_OF_RINGS>
4

> <JCHEM_PHYSIOLOGICAL_CHARGE>
1

> <JCHEM_PKA>
7.390927265363257

> <JCHEM_PKA_STRONGEST_ACIDIC>
2.874852456421025

> <JCHEM_PKA_STRONGEST_BASIC>
10.54083543847632

> <JCHEM_POLAR_SURFACE_AREA>
176.66

> <JCHEM_REFRACTIVITY>
153.93049999999997

> <JCHEM_ROTATABLE_BOND_COUNT>
7

> <JCHEM_RULE_OF_FIVE>
0

> <ALOGPS_SOLUBILITY>
2.13e-01 g/l

> <JCHEM_TRADITIONAL_IUPAC>
omadacycline

> <JCHEM_VEBER_RULE>
0

> <DRUGBANK_ID>
DB12455

> <DRUG_GROUPS>
approved; investigational

> <GENERIC_NAME>
Omadacycline

> <SYNONYMS>
Amadacycline; Omadacycline

> <PRODUCTS>
Nuzyra

> <SALTS>
Omadacycline tosylate

$$$$
8281
  -OEChem-11151811043D

 31 31  0     0  0  0  0  0  0999 V2000
    0.4264   -2.0351    0.0058 S   0  0  0  0  0  0  0  0  0  0  0  0
    0.2360   -2.4422   -1.3729 O   0  0  0  0  0  0  0  0  0  0  0  0
    0.9249   -2.9770    0.9893 O   0  0  0  0  0  0  0  0  0  0  0  0
   -1.8533   -0.4699   -1.4265 O   0  0  0  0  0  0  0  0  0  0  0  0
   -1.0156   -1.3198    0.5899 N   0  0  0  0  0  0  0  0  0  0  0  0
    4.1116    2.6310    0.0672 N   0  0  0  0  0  0  0  0  0  0  0  0
    1.5224   -0.6486    0.0242 C   0  0  0  0  0  0  0  0  0  0  0  0
    2.2654   -0.3893    1.1629 C   0  0  0  0  0  0  0  0  0  0  0  0
    1.6165    0.1536   -1.1001 C   0  0  0  0  0  0  0  0  0  0  0  0
    3.2371    1.5247    0.0536 C   0  0  0  0  0  0  0  0  0  0  0  0
    3.1293    0.7059    1.1778 C   0  0  0  0  0  0  0  0  0  0  0  0
    2.4805    1.2485   -1.0853 C   0  0  0  0  0  0  0  0  0  0  0  0
   -1.9495   -0.5905   -0.2142 C   0  0  0  0  0  0  0  0  0  0  0  0
   -3.7563    1.0900    0.3204 C   0  0  0  0  0  0  0  0  0  0  0  0
   -3.0611   -0.0278    0.6000 C   0  0  0  0  0  0  0  0  0  0  0  0
   -4.8804    1.6700    1.1325 C   0  0  0  0  0  0  0  0  0  0  0  0
   -3.4338    1.8765   -0.9248 C   0  0  0  0  0  0  0  0  0  0  0  0
    2.1902   -1.0092    2.0509 H   0  0  0  0  0  0  0  0  0  0  0  0
    1.0325   -0.0421   -1.9940 H   0  0  0  0  0  0  0  0  0  0  0  0
   -1.2070   -1.4340    1.5940 H   0  0  0  0  0  0  0  0  0  0  0  0
    3.7123    0.9118    2.0719 H   0  0  0  0  0  0  0  0  0  0  0  0
    2.5546    1.8797   -1.9672 H   0  0  0  0  0  0  0  0  0  0  0  0
   -3.2859   -0.5584    1.5225 H   0  0  0  0  0  0  0  0  0  0  0  0
   -5.1013    1.0485    2.0066 H   0  0  0  0  0  0  0  0  0  0  0  0
   -4.6190    2.6707    1.4907 H   0  0  0  0  0  0  0  0  0  0  0  0
   -5.7921    1.7370    0.5303 H   0  0  0  0  0  0  0  0  0  0  0  0
   -3.7498    2.9203   -0.8119 H   0  0  0  0  0  0  0  0  0  0  0  0
   -3.9641    1.4620   -1.7880 H   0  0  0  0  0  0  0  0  0  0  0  0
   -2.3608    1.9174   -1.1351 H   0  0  0  0  0  0  0  0  0  0  0  0
    4.6590    2.8334    0.8931 H   0  0  0  0  0  0  0  0  0  0  0  0
    4.1882    3.2258   -0.7471 H   0  0  0  0  0  0  0  0  0  0  0  0
  1  2  2  0  0  0  0
  1  3  2  0  0  0  0
  1  5  1  0  0  0  0
  1  7  1  0  0  0  0
  4 13  2  0  0  0  0
  5 13  1  0  0  0  0
  5 20  1  0  0  0  0
  6 10  1  0  0  0  0
  6 30  1  0  0  0  0
  6 31  1  0  0  0  0
  7  8  2  0  0  0  0
  7  9  1  0  0  0  0
  8 11  1  0  0  0  0
  8 18  1  0  0  0  0
  9 12  2  0  0  0  0
  9 19  1  0  0  0  0
 10 11  2  0  0  0  0
 10 12  1  0  0  0  0
 11 21  1  0  0  0  0
 12 22  1  0  0  0  0
 13 15  1  0  0  0  0
 14 15  2  0  0  0  0
 14 16  1  0  0  0  0
 14 17  1  0  0  0  0
 15 23  1  0  0  0  0
 16 24  1  0  0  0  0
 16 25  1  0  0  0  0
 16 26  1  0  0  0  0
 17 27  1  0  0  0  0
 17 28  1  0  0  0  0
 17 29  1  0  0  0  0
M  END
> <DATABASE_ID>
DB13214

> <DATABASE_NAME>
drugbank

> <ORIGINAL_SOURCE>
PUBCHEM

> <ORIGINAL_SOURCE_URL>
https://pubchem.ncbi.nlm.nih.gov/rest/pug/compound/inchikey/XRVJPLDTMUSSDE-UHFFFAOYSA-N/SDF?record_type=3d

> <SMILES>
CC(C)=CC(=O)NS(=O)(=O)C1=CC=C(N)C=C1

> <INCHI_IDENTIFIER>
InChI=1S/C11H14N2O3S/c1-8(2)7-11(14)13-17(15,16)10-5-3-9(12)4-6-10/h3-7H,12H2,1-2H3,(H,13,14)

> <INCHI_KEY>
XRVJPLDTMUSSDE-UHFFFAOYSA-N

> <FORMULA>
C11H14N2O3S

> <MOLECULAR_WEIGHT>
254.3

> <EXACT_MASS>
254.072513493

> <JCHEM_ACCEPTOR_COUNT>
4

> <JCHEM_ATOM_COUNT>
31

> <JCHEM_AVERAGE_POLARIZABILITY>
26.1229712376524

> <JCHEM_BIOAVAILABILITY>
1

> <JCHEM_DONOR_COUNT>
2

> <JCHEM_FORMAL_CHARGE>
0

> <JCHEM_GHOSE_FILTER>
1

> <JCHEM_IUPAC>
N-(4-aminobenzenesulfonyl)-3-methylbut-2-enamide

> <ALOGPS_LOGP>
0.63

> <JCHEM_LOGP>
1.1252482106666664

> <ALOGPS_LOGS>
-2.32

> <JCHEM_MDDR_LIKE_RULE>
0

> <JCHEM_NUMBER_OF_RINGS>
1

> <JCHEM_PHYSIOLOGICAL_CHARGE>
-1

> <JCHEM_PKA_STRONGEST_ACIDIC>
4.408088221327244

> <JCHEM_PKA_STRONGEST_BASIC>
2.1082614612770136

> <JCHEM_POLAR_SURFACE_AREA>
89.26

> <JCHEM_REFRACTIVITY>
67.0854

> <JCHEM_ROTATABLE_BOND_COUNT>
2

> <JCHEM_RULE_OF_FIVE>
1

> <ALOGPS_SOLUBILITY>
1.23e+00 g/l

> <JCHEM_TRADITIONAL_IUPAC>
sulfadicramide

> <JCHEM_VEBER_RULE>
0

$$$$
3037206
  -OEChem-10061700183D

 73 75  0     1  0  0  0  0  0999 V2000
   -1.0766   -0.5672    0.1933 O   0  0  0  0  0  0  0  0  0  0  0  0
    1.7698   -0.3552    0.2183 O   0  0  0  0  0  0  0  0  0  0  0  0
   -2.9767    0.1105    1.3925 O   0  0  0  0  0  0  0  0  0  0  0  0
    0.5554   -3.2674    2.0222 O   0  0  0  0  0  0  0  0  0  0  0  0
    3.8168    0.4616    1.0640 O   0  0  0  0  0  0  0  0  0  0  0  0
   -1.8908    1.9378   -0.6334 O   0  0  0  0  0  0  0  0  0  0  0  0
   -6.1802    1.5875    0.3478 O   0  0  0  0  0  0  0  0  0  0  0  0
   