-1.2433   -0.4385 C   0  0  0  0  0  0  0  0  0  0  0  0
   -5.6122   -0.0556    0.3871 C   0  0  0  0  0  0  0  0  0  0  0  0
   -4.3622   -2.4511   -0.3078 C   0  0  0  0  0  0  0  0  0  0  0  0
   -6.2975   -1.2635    0.5177 C   0  0  0  0  0  0  0  0  0  0  0  0
   -5.6725   -2.4612    0.1702 C   0  0  0  0  0  0  0  0  0  0  0  0
    3.2687    2.3903    0.2139 H   0  0  0  0  0  0  0  0  0  0  0  0
    2.5021   -1.5231   -0.1718 H   0  0  0  0  0  0  0  0  0  0  0  0
    1.2122    2.7445   -1.0698 H   0  0  0  0  0  0  0  0  0  0  0  0
    5.2425    0.9046    1.1078 H   0  0  0  0  0  0  0  0  0  0  0  0
    5.1279    0.3165    2.7746 H   0  0  0  0  0  0  0  0  0  0  0  0
    5.7760   -0.7271    1.5173 H   0  0  0  0  0  0  0  0  0  0  0  0
    3.4764   -1.5633    3.3609 H   0  0  0  0  0  0  0  0  0  0  0  0
    2.3383   -2.1628    2.1439 H   0  0  0  0  0  0  0  0  0  0  0  0
    4.0527   -2.5685    2.0327 H   0  0  0  0  0  0  0  0  0  0  0  0
   -0.0292    1.5103    1.2312 H   0  0  0  0  0  0  0  0  0  0  0  0
   -2.2145    0.3835    1.1263 H   0  0  0  0  0  0  0  0  0  0  0  0
    5.6947   -2.7084   -0.9921 H   0  0  0  0  0  0  0  0  0  0  0  0
   -2.7511    3.3873    0.9107 H   0  0  0  0  0  0  0  0  0  0  0  0
   -1.7401    2.5915    2.1284 H   0  0  0  0  0  0  0  0  0  0  0  0
   -3.4931    2.3231    2.0991 H   0  0  0  0  0  0  0  0  0  0  0  0
   -2.6603   -1.2486   -0.8211 H   0  0  0  0  0  0  0  0  0  0  0  0
   -6.1018    0.8750    0.6590 H   0  0  0  0  0  0  0  0  0  0  0  0
   -3.8765   -3.3834   -0.5804 H   0  0  0  0  0  0  0  0  0  0  0  0
   -7.3177   -1.2715    0.8899 H   0  0  0  0  0  0  0  0  0  0  0  0
   -6.2063   -3.4016    0.2715 H   0  0  0  0  0  0  0  0  0  0  0  0
  1  9  1  0  0  0  0
  1 10  1  0  0  0  0
  2 13  2  0  0  0  0
  3 16  1  0  0  0  0
  3 37  1  0  0  0  0
  4 16  2  0  0  0  0
  5 17  2  0  0  0  0
  6 18  1  0  0  0  0
  6 20  1  0  0  0  0
  7  9  1  0  0  0  0
  7 11  1  0  0  0  0
  7 13  1  0  0  0  0
  8 12  1  0  0  0  0
  8 17  1  0  0  0  0
  8 35  1  0  0  0  0
  9 12  1  0  0  0  0
  9 26  1  0  0  0  0
 10 11  1  0  0  0  0
 10 14  1  0  0  0  0
 10 15  1  0  0  0  0
 11 16  1  0  0  0  0
 11 27  1  0  0  0  0
 12 13  1  0  0  0  0
 12 28  1  0  0  0  0
 14 29  1  0  0  0  0
 14 30  1  0  0  0  0
 14 31  1  0  0  0  0
 15 32  1  0  0  0  0
 15 33  1  0  0  0  0
 15 34  1  0  0  0  0
 17 18  1  0  0  0  0
 18 19  1  0  0  0  0
 18 36  1  0  0  0  0
 19 38  1  0  0  0  0
 19 39  1  0  0  0  0
 19 40  1  0  0  0  0
 20 21  2  0  0  0  0
 20 22  1  0  0  0  0
 21 23  1  0  0  0  0
 21 41  1  0  0  0  0
 22 24  2  0  0  0  0
 22 42  1  0  0  0  0
 23 25  2  0  0  0  0
 23 43  1  0  0  0  0
 24 25  1  0  0  0  0
 24 44  1  0  0  0  0
 25 45  1  0  0  0  0
M  END
> <DATABASE_ID>
DB13337

> <DATABASE_NAME>
drugbank

> <ORIGINAL_SOURCE>
PUBCHEM

> <ORIGINAL_SOURCE_URL>
https://pubchem.ncbi.nlm.nih.gov/rest/pug/compound/inchikey/NONJJLVGHLVQQM-JHXYUMNGSA-N/SDF?record_type=3d

> <SMILES>
[H][C@]12SC(C)(C)[C@@H](N1C(=O)[C@H]2NC(=O)C(C)OC1=CC=CC=C1)C(O)=O

> <INCHI_IDENTIFIER>
InChI=1S/C17H20N2O5S/c1-9(24-10-7-5-4-6-8-10)13(20)18-11-14(21)19-12(16(22)23)17(2,3)25-15(11)19/h4-9,11-12,15H,1-3H3,(H,18,20)(H,22,23)/t9?,11-,12+,15-/m1/s1

> <INCHI_KEY>
NONJJLVGHLVQQM-JHXYUMNGSA-N

> <FORMULA>
C17H20N2O5S

> <MOLECULAR_WEIGHT>
364.42

> <EXACT_MASS>
364.109292926

> <JCHEM_ACCEPTOR_COUNT>
5

> <JCHEM_ATOM_COUNT>
45

> <JCHEM_AVERAGE_POLARIZABILITY>
36.74480920508262

> <JCHEM_BIOAVAILABILITY>
1

> <JCHEM_DONOR_COUNT>
2

> <JCHEM_FORMAL_CHARGE>
0

> <JCHEM_GHOSE_FILTER>
1

> <JCHEM_IUPAC>
(2S,5R,6R)-3,3-dimethyl-7-oxo-6-(2-phenoxypropanamido)-4-thia-1-azabicyclo[3.2.0]heptane-2-carboxylic acid

> <ALOGPS_LOGP>
2.22

> <JCHEM_LOGP>
1.3320059486666669

> <ALOGPS_LOGS>
-3.01

> <JCHEM_MDDR_LIKE_RULE>
0

> <JCHEM_NUMBER_OF_RINGS>
3

> <JCHEM_PHYSIOLOGICAL_CHARGE>
-1

> <JCHEM_PKA>
11.777695766254167

> <JCHEM_PKA_STRONGEST_ACIDIC>
3.4715115673791264

> <JCHEM_PKA_STRONGEST_BASIC>
-4.881369462504333

> <JCHEM_POLAR_SURFACE_AREA>
95.94000000000001

> <JCHEM_REFRACTIVITY>
90.26190000000003

> <JCHEM_ROTATABLE_BOND_COUNT>
5

> <JCHEM_RULE_OF_FIVE>
1

> <ALOGPS_SOLUBILITY>
3.56e-01 g/l

> <JCHEM_TRADITIONAL_IUPAC>
phenethicillin

> <JCHEM_VEBER_RULE>
0

$$$$
4628
  -OEChem-10061700263D

 30 32  0     0  0  0  0  0  0999 V2000
   -4.0523    0.6245    0.1367 O   0  0  0  0  0  0  0  0  0  0  0  0
   -3.6816   -1.7335   -0.1849 O   0  0  0  0  0  0  0  0  0  0  0  0
    1.4100   -2.4292   -0.2596 O   0  0  0  0  0  0  0  0  0  0  0  0
    3.8788   -1.9272    0.4619 O   0  0  0  0  0  0  0  0  0  0  0  0
    4.6461    0.0412   -0.4139 O   0  0  0  0  0  0  0  0  0  0  0  0
    0.7730    1.5661    0.2854 N   0  0  0  0  0  0  0  0  0  0  0  0
   -0.3588    0.7231    0.1655 C   0  0  0  0  0  0  0  0  0  0  0  0
   -0.1684   -0.6777   -0.0256 C   0  0  0  0  0  0  0  0  0  0  0  0
   -1.6817    1.2038    0.2255 C   0  0  0  0  0  0  0  0  0  0  0  0
    0.5636    2.9988    0.4807 C   0  0  0  0  0  0  0  0  0  0  0  0
   -2.7282    0.3086    0.0986 C   0  0  0  0  0  0  0  0  0  0  0  0
   -2.5182   -1.0351   -0.0846 C   0  0  0  0  0  0  0  0  0  0  0  0
   -1.2493   -1.5643   -0.1517 C   0  0  0  0  0  0  0  0  0  0  0  0
    2.0406    1.0180    0.2155 C   0  0  0  0  0  0  0  0  0  0  0  0
    1.2100   -1.2320   -0.0957 C   0  0  0  0  0  0  0  0  0  0  0  0
    2.3343   -0.2750    0.0401 C   0  0  0  0  0  0  0  0  0  0  0  0
   -4.6505   -0.6750   -0.0440 C   0  0  0  0  0  0  0  0  0  0  0  0
    0.4896    3.7340   -0.8417 C   0  0  0  0  0  0  0  0  0  0  0  0
    3.7430   -0.6691   -0.0081 C   0  0  0  0  0  0  0  0  0  0  0  0
   -1.9255    2.2521    0.3517 H   0  0  0  0  0  0  0  0  0  0  0  0
   -0.2965    3.2278    1.1185 H   0  0  0  0  0  0  0  0  0  0  0  0
    1.4149    3.4105    1.0407 H   0  0  0  0  0  0  0  0  0  0  0  0
   -1.1079   -2.6298   -0.2970 H   0  0  0  0  0  0  0  0  0  0  0  0
    2.8228    1.7638    0.3211 H   0  0  0  0  0  0  0  0  0  0  0  0
   -5.2776   -0.6511   -0.9427 H   0  0  0  0  0  0  0  0  0  0  0  0
   -5.2853   -0.8930    0.8225 H   0  0  0  0  0  0  0  0  0  0  0  0
    1.3992    3.5805   -1.4320 H   0  0  0  0  0  0  0  0  0  0  0  0
   -0.3586    3.3933   -1.4438 H   0  0  0  0  0  0  0  0  0  0  0  0
    0.3742    4.8092   -0.6728 H   0  0  0  0  0  0  0  0  0  0  0  0
    4.8124   -2.2282    0.4452 H   0  0  0  0  0  0  0  0  0  0  0  0
  1 11  1  0  0  0  0
  1 17  1  0  0  0  0
  2 12  1  0  0  0  0
  2 17  1  0  0  0  0
  3 15  2  0  0  0  0
  4 19  1  0  0  0  0
  4 30  1  0  0  0  0
  5 19  2  0  0  0  0
  6  7  1  0  0  0  0
  6 10  1  0  0  0  0
  6 14  1  0  0  0  0
  7  8  1  0  0  0  0
  7  9  2  0  0  0  0
  8 13  2  0  0  0  0
  8 15  1  0  0  0  0
  9 11  1  0  0  0  0
  9 20  1  0  0  0  0
 10 18  1  0  0  0  0
 10 21  1  0  0  0  0
 10 22  1  0  0  0  0
 11 12  2  0  0  0  0
 12 13  1  0  0  0  0
 13 23  1  0  0  0  0
 14 16  2  0  0  0  0
 14 24  1  0  0  0  0
 15 16  1  0  0  0  0
 16 19  1  0  0  0  0
 17 25  1  0  0  0  0
 17 26  1  0  0  0  0
 18 27  1  0  0  0  0
 18 28  1  0  0  0  0
 18 29  1  0  0  0  0
M  END
> <DATABASE_ID>
DB13627

> <DATABASE_NAME>
drugbank

> <ORIGINAL_SOURCE>
PUBCHEM

> <ORIGINAL_SOURCE_URL>
https://pubchem.ncbi.nlm.nih.gov/rest/pug/compound/inchikey/KYGZCKSPAKDVKC-UHFFFAOYSA-N/SDF?record_type=3d

> <SMILES>
CCN1C=C(C(O)=O)C(=O)C2=CC3=C(OCO3)C=C12

> <INCHI_IDENTIFIER>
InChI=1S/C13H11NO5/c1-2-14-5-8(13(16)17)12(15)7-3-10-11(4-9(7)14)19-6-18-10/h3-5H,2,6H2,1H3,(H,16,17)

> <INCHI_KEY>
KYGZCKSPAKDVKC-UHFFFAOYSA-N

> <FORMULA>
C13H11NO5

> <MOLECULAR_WEIGHT>
261.2301

> <EXACT_MASS>
261.063722467

> <JCHEM_ACCEPTOR_COUNT>
6

> <JCHEM_AVERAGE_POLARIZABILITY>
25.521229530139497

> <JCHEM_BIOAVAILABILITY>
1

> <JCHEM_DONOR_COUNT>
1

> <JCHEM_FORMAL_CHARGE>
0

> <JCHEM_GHOSE_FILTER>
1

> <JCHEM_IUPAC>
5-ethyl-8-oxo-2H,5H,8H-[1,3]dioxolo[4,5-g]quinoline-7-carboxylic acid

> <ALOGPS_LOGP>
0.86

> <JCHEM_LOGP>
1.3531468610000004

> <ALOGPS_LOGS>
-2.14

> <JCHEM_MDDR_LIKE_RULE>
0

> <JCHEM_NUMBER_OF_RINGS>
3

> <JCHEM_PHYSIOLOGICAL_CHARGE>
-1

> <JCHEM_PKA_STRONGEST_ACIDIC>
5.579866110343406

> <JCHEM_PKA_STRONGEST_BASIC>
-4.282722549478013

> <JCHEM_POLAR_SURFACE_AREA>
76.07000000000001

> <JCHEM_REFRACTIVITY>
65.84330000000001

> <JCHEM_ROTATABLE_BOND_COUNT>
2

> <JCHEM_RULE_OF_FIVE>
1

> <ALOGPS_SOLUBILITY>
1.91e+00 g/l

> <JCHEM_TRADITIONAL_IUPAC>
ossian

> <JCHEM_VEBER_RULE>
0

$$$$
4855
  -OEChem-10061700293D

 37 39  0     0  0  0  0  0  0999 V2000
    2.5675   -2.3288   -0.2844 O   0  0  0  0  0  0  0  0  0  0  0  0
    4.8708   -1.3240    0.5099 O   0  0  0  0  0  0  0  0  0  0  0  0
    5.2286    0.7734   -0.3287 O   0  0  0  0  0  0  0  0  0  0  0  0
   -3.3196   -0.2715    0.0201 N   0  0  0  0  0  0  0  0  0  0  0  0
    1.0989    1.4224    0.2713 N   0  0  0  0  0  0  0  0  0  0  0  0
   -1.1652    0.5729    0.1454 N   0  0  0  0  0  0  0  0  0  0  0  0
   -1.5762   -1.7773   -0.2021 N   0  0  0  0  0  0  0  0  0  0  0  0
   -5.3943    0.8260   -0.1251 C   0  0  0  0  0  0  0  0  0  0  0  0
   -5.6312   -0.6189    0.2785 C   0  0  0  0  0  0  0  0  0  0  0  0
   -3.9222    1.0447    0.2161 C   0  0  0  0  0  0  0  0  0  0  0  0
   -4.3342   -1.3113   -0.1339 C   0  0  0  0  0  0  0  0  0  0  0  0
   -1.9615   -0.5040   -0.0139 C   0  0  0  0  0  0  0  0  0  0  0  0
    0.1741    0.3578    0.1137 C   0  0  0  0  0  0  0  0  0  0  0  0
    0.6705   -0.9359   -0.0775 C   0  0  0  0  0  0  0  0  0  0  0  0
    0.5307    2.7495    0.4679 C   0  0  0  0  0  0  0  0  0  0  0  0
   -0.2441   -1.9649   -0.2296 C   0  0  0  0  0  0  0  0  0  0  0  0
    2.4563    1.1714    0.2353 C   0  0  0  0  0  0  0  0  0  0  0  0
    2.1277   -1.1989   -0.1159 C   0  0  0  0  0  0  0  0  0  0  0  0
    3.0245   -0.0278    0.0581 C   0  0  0  0  0  0  0  0  0  0  0  0
    0.3143    3.4615   -0.8514 C   0  0  0  0  0  0  0  0  0  0  0  0
    4.4846   -0.1162    0.0461 C   0  0  0  0  0  0  0  0  0  0  0  0
   -5.5509    0.9421   -1.2044 H   0  0  0  0  0  0  0  0  0  0  0  0
   -6.0530    1.5278    0.3940 H   0  0  0  0  0  0  0  0  0  0  0  0
   -5.7634   -0.6856    1.3652 H   0  0  0  0  0  0  0  0  0  0  0  0
   -6.5106   -1.0576   -0.2011 H   0  0  0  0  0  0  0  0  0  0  0  0
   -3.4859    1.8078   -0.4374 H   0  0  0  0  0  0  0  0  0  0  0  0
   -3.8066    1.3566    1.2603 H   0  0  0  0  0  0  0  0  0  0  0  0
   -4.1445   -2.1813    0.5039 H   0  0  0  0  0  0  0  0  0  0  0  0
   -4.3814   -1.6350   -1.1798 H   0  0  0  0  0  0  0  0  0  0  0  0
   -0.4025    2.7215    1.0440 H   0  0  0  0  0  0  0  0  0  0  0  0
    1.2173    3.3529    1.0766 H   0  0  0  0  0  0  0  0  0  0  0  0
    0.0648   -2.9937   -0.3816 H   0  0  0  0  0  0  0  0  0  0  0  0
    3.0507    2.0697    0.3699 H   0  0  0  0  0  0  0  0  0  0  0  0
    1.2524    3.5576   -1.4082 H   0  0  0  0  0  0  0  0  0  0  0  0
   -0.3955    2.9199   -1.4852 H   0  0  0  0  0  0  0  0  0  0  0  0
   -0.0833    4.4669   -0.6808 H   0  0  0  0  0  0  0  0  0  0  0  0
    5.8469   -1.4213    0.5166 H   0  0  0  0  0  0  0  0  0  0  0  0
  1 18  2  0  0  0  0
  2 21  1  0  0  0  0
  2 37  1  0  0  0  0
  3 21  2  0  0  0  0
  4 10  1  0  0  0  0
  4 11  1  0  0  0  0
  4 12  1  0  0  0  0
  5 13  1  0  0  0  0
  5 15  1  0  0  0  0
  5 17  1  0  0  0  0
  6 12  1  0  0  0  0
  6 13  2  0  0  0  0
  7 12  2  0  0  0  0
  7 16  1  0  0  0  0
  8  9  1  0  0  0  0
  8 10  1  0  0  0  0
  8 22  1  0  0  0  0
  8 23  1  0  0  0  0
  9 11  1  0  0  0  0
  9 24  1  0  0  0  0
  9 25  1  0  0  0  0
 10 26  1  0  0  0  0
 10 27  1  0  0  0  0
 11 28  1  0  0  0  0
 11 29  1  0  0  0  0
 13 14  1  0  0  0  0
 14 16  2  0  0  0  0
 14 18  1  0  0  0  0
 15 20  1  0  0  0  0
 15 30  1  0  0  0  0
 15 31  1  0  0  0  0
 16 32  1  0  0  0  0
 17 19  2  0  0  0  0
 17 33  1  0  0  0  0
 18 19  1  0  0  0  0
 19 21  1  0  0  0  0
 20 34  1  0  0  0  0
 20 35  1  0  0  0  0
 20 36  1  0  0  0  0
M  END
> <DATABASE_ID>
DB13744

> <DATABASE_NAME>
drugbank

> <ORIGINAL_SOURCE>
PUBCHEM

> <ORIGINAL_SOURCE_URL>
https://pubchem.ncbi.nlm.nih.gov/rest/pug/compound/inchikey/RCIMBBZXSXFZBV-UHFFFAOYSA-N/SDF?record_type=3d

> <SMILES>
CCN1C=C(C(O)=O)C(=O)C2=CN=C(N=C12)N1CCCC1

> <INCHI_IDENTIFIER>
InChI=1S/C14H16N4O3/c1-2-17-8-10(13(20)21)11(19)9-7-15-14(16-12(9)17)18-5-3-4-6-18/h7-8H,2-6H2,1H3,(H,20,21)

> <INCHI_KEY>
RCIMBBZXSXFZBV-UHFFFAOYSA-N

> <FORMULA>
C14H16N4O3

> <MOLECULAR_WEIGHT>
288.307

> <EXACT_MASS>
288.122240391

> <JCHEM_ACCEPTOR_COUNT>
7

> <JCHEM_ATOM_COUNT>
37

> <JCHEM_AVERAGE_POLARIZABILITY>
29.78331159593219

> <JCHEM_BIOAVAILABILITY>
1

> <JCHEM_DONOR_COUNT>
1

> <JCHEM_FORMAL_CHARGE>
0

> <JCHEM_GHOSE_FILTER>
1

> <JCHEM_IUPAC>
8-ethyl-5-oxo-2-(pyrrolidin-1-yl)-5H,8H-pyrido[2,3-d]pyrimidine-6-carboxylic acid

> <ALOGPS_LOGP>
0.42

> <JCHEM_LOGP>
1.5934879106666664

> <ALOGPS_LOGS>
-2.38

> <JCHEM_MDDR_LIKE_RULE>
0

> <JCHEM_NUMBER_OF_RINGS>
3

> <JCHEM_PHYSIOLOGICAL_CHARGE>
-1

> <JCHEM_PKA_STRONGEST_ACIDIC>
5.612598220200083

> <JCHEM_PKA_STRONGEST_BASIC>
3.029259218784226

> <JCHEM_POLAR_SURFACE_AREA>
86.63000000000001

> <JCHEM_REFRACTIVITY>
78.96979999999999

> <JCHEM_ROTATABLE_BOND_COUNT>
3

> <JCHEM_RULE_OF_FIVE>
1

> <ALOGPS_SOLUBILITY>
1.21e+00 g/l

> <JCHEM_TRADITIONAL_IUPAC>
enterol

> <JCHEM_VEBER_RULE>
0

$$$$
6921791
  -OEChem-10061700313D

 39 41  0     0  0  0  0  0  0999 V2000
    2.8269   -2.3493   -0.1854 O   0  0  0  0  0  0  0  0  0  0  0  0
    5.2336   -1.3145    0.0080 O   0  5  0  0  0  0  0  0  0  0  0  0
    5.3858    0.9510    0.2873 O   0  0  0  0  0  0  0  0  0  0  0  0
   -5.8271    0.2267    0.1691 N   0  3  0  0  0  0  0  0  0  0  0  0
   -3.0699   -0.2966   -0.1016 N   0  0  0  0  0  0  0  0  0  0  0  0
   -0.9219    0.5552    0.0616 N   0  0  0  0  0  0  0  0  0  0  0  0
    1.3370    1.4122    0.2291 N   0  0  0  0  0  0  0  0  0  0  0  0
   -1.3203   -1.8043   -0.2358 N   0  0  0  0  0  0  0  0  0  0  0  0
   -5.2929   -1.1160    0.5412 C   0  0  0  0  0  0  0  0  0  0  0  0
   -4.8421    1.3246    0.4016 C   0  0  0  0  0  0  0  0  0  0  0  0
   -4.0291   -1.3960   -0.2616 C   0  0  0  0  0  0  0  0  0  0  0  0
   -3.5893    1.0421   -0.4134 C   0  0  0  0  0  0  0  0  0  0  0  0
   -1.7121   -0.5270   -0.0919 C   0  0  0  0  0  0  0  0  0  0  0  0
    0.4179    0.3418    0.0733 C   0  0  0  0  0  0  0  0  0  0  0  0
    0.9209   -0.9558   -0.0700 C   0  0  0  0  0  0  0  0  0  0  0  0
    0.0123   -1.9902   -0.2210 C   0  0  0  0  0  0  0  0  0  0  0  0
    0.7625    2.7431    0.3745 C   0  0  0  0  0  0  0  0  0  0  0  0
    2.6947    1.1623    0.2372 C   0  0  0  0  0  0  0  0  0  0  0  0
    2.3790   -1.2172   -0.0606 C   0  0  0  0  0  0  0  0  0  0  0  0
    3.2655   -0.0394    0.1075 C   0  0  0  0  0  0  0  0  0  0  0  0
    0.5963    3.3916   -0.9863 C   0  0  0  0  0  0  0  0  0  0  0  0
    4.7722   -0.1443    0.1372 C   0  0  0  0  0  0  0  0  0  0  0  0
   -6.1168    0.2235   -0.8190 H   0  0  0  0  0  0  0  0  0  0  0  0
   -6.6818    0.4154    0.7106 H   0  0  0  0  0  0  0  0  0  0  0  0
   -6.0778   -1.8466    0.3253 H   0  0  0  0  0  0  0  0  0  0  0  0
   -5.0994   -1.0982    1.6191 H   0  0  0  0  0  0  0  0  0  0  0  0
   -4.6386    1.3551    1.4772 H   0  0  0  0  0  0  0  0  0  0  0  0
   -5.3226    2.2580    0.0943 H   0  0  0  0  0  0  0  0  0  0  0  0
   -3.6277   -2.3515    0.0954 H   0  0  0  0  0  0  0  0  0  0  0  0
   -4.2666   -1.5185   -1.3255 H   0  0  0  0  0  0  0  0  0  0  0  0
   -3.8073    1.1013   -1.4872 H   0  0  0  0  0  0  0  0  0  0  0  0
   -2.8720    1.8397   -0.1905 H   0  0  0  0  0  0  0  0  0  0  0  0
    0.3265   -3.0220   -0.3372 H   0  0  0  0  0  0  0  0  0  0  0  0
   -0.1912    2.7329    0.9163 H   0  0  0  0  0  0  0  0  0  0  0  0
    1.4292    3.3694    0.9815 H   0  0  0  0  0  0  0  0  0  0  0  0
    3.2685    2.0741    0.3615 H   0  0  0  0  0  0  0  0  0  0  0  0
    1.5545    3.4647   -1.5117 H   0  0  0  0  0  0  0  0  0  0  0  0
   -0.0898    2.8212   -1.6210 H   0  0  0  0  0  0  0  0  0  0  0  0
    0.1927    4.4032   -0.8771 H   0  0  0  0  0  0  0  0  0  0  0  0
  1 19  2  0  0  0  0
  2 22  1  0  0  0  0
  3 22  2  0  0  0  0
  4  9  1  0  0  0  0
  4 10  1  0  0  0  0
  4 23  1  0  0  0  0
  4 24  1  0  0  0  0
  5 11  1  0  0  0  0
  5 12  1  0  0  0  0
  5 13  1  0  0  0  0
  6 13  1  0  0  0  0
  6 14  2  0  0  0  0
  7 14  1  0  0  0  0
  7 17  1  0  0  0  0
  7 18  1  0  0  0  0
  8 13  2  0  0  0  0
  8 16  1  0  0  0  0
  9 11  1  0  0  0  0
  9 25  1  0  0  0  0
  9 26  1  0  0  0  0
 10 12  1  0  0  0  0
 10 27  1  0  0  0  0
 10 28  1  0  0  0  0
 11 29  1  0  0  0  0
 11 30  1  0  0  0  0
 12 31  1  0  0  0  0
 12 32  1  0  0  0  0
 14 15  1  0  0  0  0
 15 16  2  0  0  0  0
 15 19  1  0  0  0  0
 16 33  1  0  0  0  0
 17 21  1  0  0  0  0
 17 34  1  0  0  0  0
 17 35  1  0  0  0  0
 18 20  2  0  0  0  0
 18 36  1  0  0  0  0
 19 20  1  0  0  0  0
 20 22  1  0  0  0  0
 21 37  1  0  0  0  0
 21 38  1  0  0  0  0
 21 39  1  0  0  0  0
M  CHG  2   2  -1   4   1
M  END
> <DATABASE_ID>
DB13823

> <DATABASE_NAME>
drugbank

> <ORIGINAL_SOURCE>
PUBCHEM

> <ORIGINAL_SOURCE_URL>
https://pubchem.ncbi.nlm.nih.gov/rest/pug/compound/inchikey/JOHZPMXAZQZXHR-UHFFFAOYSA-N/SDF?record_type=3d

> <SMILES>
CCN1C=C(C(O)=O)C(=O)C2=CN=C(N=C12)N1CCNCC1

> <INCHI_IDENTIFIER>
InChI=1S/C14H17N5O3/c1-2-18-8-10(13(21)22)11(20)9-7-16-14(17-12(9)18)19-5-3-15-4-6-19/h7-8,15H,2-6H2,1H3,(H,21,22)

> <INCHI_KEY>
JOHZPMXAZQZXHR-UHFFFAOYSA-N

> <FORMULA>
C14H17N5O3

> <MOLECULAR_WEIGHT>
303.3165

> <EXACT_MASS>
303.133139435

> <JCHEM_ACCEPTOR_COUNT>
8

> <JCHEM_AVERAGE_POLARIZABILITY>
30.93831180120636

> <JCHEM_BIOAVAILABILITY>
1

> <JCHEM_DONOR_COUNT>
2

> <JCHEM_FORMAL_CHARGE>
0

> <JCHEM_GHOSE_FILTER>
0

> <JCHEM_IUPAC>
8-ethyl-5-oxo-2-(piperazin-1-yl)-5H,8H-pyrido[2,3-d]pyrimidine-6-carboxylic acid

> <ALOGPS_LOGP>
-1.52

> <JCHEM_LOGP>
-1.7723289128971305

> <ALOGPS_LOGS>
-2.61

> <JCHEM_MDDR_LIKE_RULE>
0

> <JCHEM_NUMBER_OF_RINGS>
3

> <JCHEM_PHYSIOLOGICAL_CHARGE>
0

> <JCHEM_PKA_STRONGEST_ACIDIC>
5.306025724995468

> <JCHEM_PKA_STRONGEST_BASIC>
8.569980148451265

> <JCHEM_POLAR_SURFACE_AREA>
98.66000000000001

> <JCHEM_REFRACTIVITY>
82.18419999999998

> <JCHEM_ROTATABLE_BOND_COUNT>
3

> <JCHEM_RULE_OF_FIVE>
1

> <ALOGPS_SOLUBILITY>
7.46e-01 g/l

> <JCHEM_TRADITIONAL_IUPAC>
pipemidic acid

> <JCHEM_VEBER_RULE>
0

$$$$
                                                                                                                                                                                                                                                                                                                                                                                                                                                                                                                                                                                                                                                                                                                                                                                                                                                                                                                                                                                                                                                                                                                                                                                                                                                                                                                                                                                                                                                                                                                                                                                                                                                                                                                                                                                                                                                                                                                                                                                                                                                                                                                 p a s t   i t s   e n d .        N o   e r r o r   o c c u r r e d . - A n   u n k n o w n   e r r o r   o c c u r r e d   w h i l e   a c c e s s i n g   % 1 . / A n   a t t e m p t   w a s   m a d e   t o   w r i t e   t o   t h e   r e a d i n g   % 1 . . A n   a t t e m p t   w a s   m a d e   t o   a c c e s s   % 1   p a s t   i t s   e n d . 0 A n   a t t e m p t   w a s   m a d e   t o   r e a d   f r o m   t h e   w r i t i n g   % 1 .  % 1   h a s   a   b a d   f o r m a t . " % 1   c o n t a i n e d   a n   u n e x p e c t e d   o b j e c t .   % 1   c o n t a i n s   a n   i n c o r r e c t   s c h e m a .                     # U n a b l e   t o   l o a d   m a i l   s y s t e m   s u p p o r t .  M a i l   s y s t e m   D L L   i s   i n v a l i d . ! S e n d   M a i l   f a i l e d   t o   s e n d   m e s s a g e .                              p i x e l s                                             ) < H E A D > < T I T L E > H T T P   E r r o r   % d < / T I T L E > < / H E A D > ; < B O D Y > < H 1 > H T T P   E r r o r   % d :   N o   m e s s a g e   a v a i l a b l e < / H 1 > < / B O D Y >  
 l < B O D Y > < H 1 > B A D   R E Q U E S T < / H 1 > < P > Y o u r   c l i e n t   s e n t   a   r e q u e s t   t h a t   t h i s   s e r v e r   d i d n ' t   u n d e r s t a n d . < b r > R e q u e s t :   % s  
 d < B O D Y > < H 1 > A U T H   R E Q U I R E D < / H 1 > < P > B r o w s e r   n o t   a u t h e n t i c a t i o n - c a p a b l e   o r   a u t h e n t i c a t i o n   f a i l e d . < / B O D Y >  
 i < B O D Y > < H 1 > F O R B I D D E N < / H 1 > < P > Y o u r   c l i e n t   d o e s   n o t   h a v e   p e r m i s s i o n   t o   g e t   t h i s   U R L   f r o m   t h e   s e r v e r . < / B O D Y >  
 S < B O D Y > < H 1 > N O T   F O U N D < / H 1 > < P > T h e   r e q u e s t e d   U R L   w a s   n o t   f o u n d   o n   t h i s   s e r v e r . < / B O D Y >  
 ‰ < B O D Y > < H 1 > S E R V E R   E R R O R < / H 1 > T h e   s e r v e r   e n c o u n t e r e d   a n   i n t e r n a l   e r r o r   o r   m i s c o n f i g u r a t i o n   a n d   w a s   u n a b l e   t o   c o m p l e t e   y o u r   r e q u e s t . < / B O D Y >  
 i < B O D Y > < H 1 > N O T   I M P L E M E N T E D < / H 1 > T h e   s e r v e r   i s   u n a b l e   t o   p e r f o r m   t h e   m e t h o d   < b > % s < / b >   a t   t h i s   t i m e . < / B O D Y >  
                    E X T  C A P  N U M  S C R L  O V R  R E C  K A N A                      C r e a t e   a   n e w   d o c u m e n t 
 N e w  O p e n   a n   e x i s t i n g   d o c u m e n t 
 O p e n  C l o s e   t h e   a c t i v e   d o c u m e n t 
 C l o s e  S a v e   t h e   a c t i v e   d o c u m e n t 
 S a v e 0 S a v e   t h e   a c t i v e   d o c u m e n t   w i t h   a   n e w   n a m e 
 S a v e   A s & C h a n g e   t h e   p r i n t i n g   o p t i o n s 
 P a g e   S e t u p 3 C h a n g e   t h e   p r i n t e r   a n d   p r i n t i n g   o p t i o n s 
 P r i n t   S e t u p  P r i n t   t h e   a c t i v e   d o c u m e n t 
 P r i n t     D i s p l a y   f u l l   p a g e s 
 P r i n t   P r e v i e w     : S e n d   t h e   a c t i v e   d o c u m e n t   t h r o u g h   e l e c t r o n i c   m a i l 
 S e n d   M a i l             ? D i s p l a y   p r o g r a m   i n f o r m a t i o n ,   v e r s i o n   n u m b e r   a n d   c o p y r i g h t 
 A b o u t 4 Q u i t   t h e   a p p l i c a t i o n ;   p r o m p t s   t o   s a v e   d o c u m e n t s 
 E x i t  L i s t   H e l p   t o p i c s 
 H e l p   I n d e x  L i s t   H e l p   t o p i c s 
 H e l p   T o p i c s / D i s p l a y   i n s t r u c t i o n s   a b o u t   h o w   t o   u s e   h e l p 
 H e l p ; D i s p l a y   h e l p   f o r   c l i c k e d   o n   b u t t o n s ,   m e n u s   a n d   w i n d o w s 
 H e l p - D i s p l a y   h e l p   f o r   c u r r e n t   t a s k   o r   c o m m a n d 
 H e l p                                          O p e n   t h i s   d o c u m e n t  O p e n   t h i s   d o c u m e n t  O p e n   t h i s   d o c u m e n t  O p e n   t h i s   d o c u m e n t  O p e n   t h i s   d o c u m e n t  O p e n   t h i s   d o c u m e n t  O p e n   t h i s   d o c u m e n t  O p e n   t h i s   d o c u m e n t  O p e n   t h i s   d o c u m e n t  O p e n   t h i s   d o c u m e n t  O p e n   t h i s   d o c u m e n t  O p e n   t h i s   d o c u m e n t  O p e n   t h i s   d o c u m e n t  O p e n   t h i s   d o c u m e n t  O p e n   t h i s   d o c u m e n t  O p e n   t h i s   d o c u m e n t ( S w i t c h   t o   t h e   n e x t   w i n d o w   p a n e 
 N e x t   P a n e 5 S w i t c h   b a c k   t o   t h e   p r e v i o u s   w i n d o w   p a n e 
 P r e v i o u s   P a n e                                   6 O p e n   a n o t h e r   w i n d o w   f o r   t h e   a c t i v e   d o c u m e n t 
 N e w   W i n d o w 7 A r r a n g e   i c o n s   a t   t h e   b o t t o m   o f   t h e   w i n d o w 
 A r r a n g e   I c o n s / A r r a n g e   w i n d o w s   s o   t h e y   o v e r l a p 
 C a s c a d e   W i n d o w s 5 A r r a n g e   w i n d o w s   a s   n o n - o v e r l a p p i n g   t i l e s 
 T i l e   W i n d o w s 5 A r r a n g e   w i n d o w s   a s   n o n - o v e r l a p p i n g   t i l e s 
 T i l e   W i n d o w s ( S p l i t   t h e   a c t i v e   w i n d o w   i n t o   p a n e s 
 S p l i t                          E r a s e   t h e   s e l e c t i o n 
 E r a s e  E r a s e   e v e r y t h i n g 
 E r a s e   A l l 3 C o p y   t h e   s e l e c t i o n   a n d   p u t   i t   o n   t h e   C l i p b o a r d 
 C o p y 1 C u t   t h e   s e l e c t i o n   a n d   p u t   i t   o n   t h e   C l i p b o a r d 
 C u t  F i n d   t h e   s p e c i f i e d   t e x t 
 F i n d  I n s e r t   C l i p b o a r d   c o n t e n t s 
 P a s t e = I n s e r t   C l i p b o a r d   c o n t e n t s   a n d   a   l i n k   t o   i t s   s o u r c e 
 P a s t e   L i n k 4 I n s e r t   C l i p b o a r d   c o n t e n t s   w i t h   o p t i o n s 
 P a s t e   S p e c i a l  R e p e a t   t h e   l a s t   a c t i o n 
 R e p e a t 1 R e p l a c e   s p e c i f i c   t e x t   w i t h   d i f f e r e n t   t e x t 
 R e p l a c e % S e l e c t   t h e   e n t i r e   d o c u m e n t 
 S e l e c t   A l l  U n d o   t h e   l a s t   a c t i o n 
 U n d o & R e d o   t h e   p r e v i o u s l y   u n d o n e   a c t i o n 
 R e d o             ' S h o w   o r   h i d e   t h e   t o o l b a r 
 T o g g l e   T o o l B a r , S h o w   o r   h i d e   t h e   s t a t u s   b a r 
 T o g g l e   S t a t u s B a r                               & S e l e c t   f o n t   f o r   c u r r e n t   s e l e c t i o n 
 F o n t                                   % I n s e r t   n e w   e m b e d d e d   o b j e c t 
 N e w   O b j e c t  E d i t   l i n k e d   o b j e c t s 
 E d i t   L i n k s 4 C o n v e r t   s e l e c t e d   o b j e c t   b e t w e e n   t y p e s 
 C o n v e r t   O b j e c t * C h a n g e   i c o n   o f   s e l e c t e d   o b j e c t 
 C h a n g e   I c o n                               " A c t i v a t e   e m b e d d e d   o r   l i n k e d   o b j e c t " A c t i v a t e   e m b e d d e d   o r   l i n k e d   o b j e c t " A c t i v a t e   e m b e d d e d   o r   l i n k e d   o b j e c t " A c t i v a t e   e m b e d d e d   o r   l i n k e d   o b j e c t " A c t i v a t e   e m b e d d e d   o r   l i n k e d   o b j e c t " A c t i v a t e   e m b e d d e d   o r   l i n k e d   o b j e c t " A c t i v a t e   e m b e d d e d   o r   l i n k e d   o b j e c t " A c t i v a t e   e m b e d d e d   o r   l i n k e d   o b j e c t " A c t i v a t e   e m b e d d e d   o r   l i n k e d   o b j e c t " A c t i v a t e   e m b e d d e d   o r   l i n k e d   o b j e c t " A c t i v a t e   e m b e d d e d   o r   l i n k e d   o b j e c t " A c t i v a t e   e m b e d d e d   o r   l i n k e d   o b j e c t " A c t i v a t e   e m b e d d e d   o r   l i n k e d   o b j e c t " A c t i v a t e   e m b e d d e d   o r   l i n k e d   o b j e c t " A c t i v a t e   e m b e d d e d   o r   l i n k e d   o b j e c t " A c t i v a t e   e m b e d d e d   o r   l i n k e d   o b j e c t ! M o v e   t o   f i r s t   r e c o r d 
 F i r s t   R e c o r d   M o v e   t o   f i n a l   r e c o r d 
 L a s t   R e c o r d  M o v e   t o   n e x t   r e c o r d 
 N e x t   R e c o r d ' M o v e   t o   p r e v i o u s   r e c o r d 
 P r e v i o u s   R e c o r d                            C h a n g e   t h e   w i n d o w   s i z e  C h a n g e   t h e   w i n d o w   p o s i t i o n  R e d u c e   t h e   w i n d o w   t o   a n   i c o n  E n l a r g e   t h e   w i n d o w   t o   f u l l   s i z e " S w i t c h   t o   t h e   n e x t   d o c u m e n t   w i n d o w & S w i t c h   t o   t h e   p r e v i o u s   d o c u m e n t   w i n d o w 9 C l o s e   t h e   a c t i v e   w i n d o w   a n d   p r o m p t s   t o   s a v e   t h e   d o c u m e n t s                       ! R e s t o r e   t h e   w i n d o w   t o   n o r m a l   s i z e  A c t i v a t e   T a s k   L i s t                        A c t i v a t e   t h i s   w i n d o w                        O p e n   t h e   s e l e c t e d   i t e m                 	 ( U n k n o w n )      D e s k t o p  A p p l i c a t i o n   W o r k s p a c e  W i n d o w   B a c k g r o u n d  W i n d o w   T e x t  M e n u   B a r 	 M e n u   T e x t  A c t i v e   T i t l e   B a r  I n a c t i v e   T i t l e   B a r  A c t i v e   T i t l e   B a r   T e x t  I n a c t i v e   T i t l e   B a r   T e x t  A c t i v e   B o r d e r  I n a c t i v e   B o r d e r                  W i n d o w   F r a m e  S c r o l l   B a r s  B u t t o n   F a c e  B u t t o n   S h a d o w  B u t t o n   T e x t  B u t t o n   H i g h l i g h t  D i s a b l e d   T e x t 	 H i g h l i g h t  H i g h l i g h t e d   T e x t  R e g u l a r  B o l d  I t a l i c  B o l d   I t a l i c  A a B b Y y Z z  ( F o n t )  ( C o l o r )        ( P i c t u r e   -   % s ) ¹ A l l   P i c t u r e   T y p e s | * . b m p ; * . c u r ; * . d i b ; * . e m f ; * . i c o ; * . w m f | B i t m a p s   ( * . b m p ; * . d i b ) | * . b m p ; * . d i b | I c o n s / C u r s o r s   ( * . i c o ; * . c u r ) | * . i c o ; * . c u r | M e t a f i l e s   ( * . w m f ; * . e m f ) | * . w m f ; * . e m f | A l l   f i l e s   ( * . * ) | * . * | |  U n k n o w n  N o n e  B i t m a p  M e t a f i l e  I c o n    C o l o r   P r o p e r t y   P a g e  C o l o r s  F o n t   P r o p e r t y   P a g e  F o n t s  P i c t u r e   P r o p e r t y   P a g e  P i c t u r e s            B r o w s e   P i c t u r e s  0   -   N o n e  1   -   F i x e d   S i n g l e                                                              & E d i t  & P r o p e r t i e s . . .                                     S U n a b l e   t o   o p e n   t h e   p i c t u r e   f i l e   % 1 .   T h e   f i l e   m a y   n o t   e x i s t ,   o r   m a y   n o t   b e   r e a d a b l e . H U n a b l e   t o   l o a d   t h e   p i c t u r e   f i l e   % 1 .   T h e   f i l e   m a y   h a v e   a n   i n v a l i d   f o r m a t . K U n a b l e   t o   l o a d   t h e   p i c t u r e   f i l e   % 1 .   T h e   f i l e   i s   t o o   l a r g e   t o   f i t   i n   m e m o r y . = U n a b l e   t o   l o a d   t h e   p i c t u r e   f i l e   % 1 .   U n e x p l a i n e d   r e a d   f a i l u r e .                      I l l e g a l   f u n c t i o n   c a l l  O v e r f l o w  O u t   o f   m e m o r y  D i v i s i o n   b y   z e r o  O u t   o f   s t r i n g   s p a c e  O u t   o f   s t a c k   s p a c e  B a d   f i l e   n a m e   o r   n u m b e r  F i l e   n o t   f o u n d  B a d   f i l e   m o d e  F i l e   a l r e a d y   o p e n  D e v i c e   I / O   e r r o r  F i l e   a l r e a d y   e x i s t s  B a d   r e c o r d   l e n g t h 	 D i s k   f u l l  B a d   r e c o r d   n u m b e r  B a d   f i l e   n a m e        T o o   m a n y   f i l e s  D e v i c e   u n a v a i l a b l e  P e r m i s s i o n   d e n i e d  D i s 5280965
  -OEChem-06262009292D

138140  0     1  0  0  0  0  0999 V2000
   16.3933    1.7500    0.0000 O   0  0  0  0  0  0  0  0  0  0  0  0
   16.3933    3.7500    0.0000 O   0  0  0  0  0  0  0  0  0  0  0  0
   18.9914    3.2500    0.0000 O   0  0  0  0  0  0  0  0  0  0  0  0
   16.3933   -1.2500    0.0000 O   0  0  0  0  0  0  0  0  0  0  0  0
   18.1254   -1.2500    0.0000 O   0  0  0  0  0  0  0  0  0  0  0  0
   14.6613    1.7500    0.0000 O   0  0  0  0  0  0  0  0  0  0  0  0
   19.8574    1.7500    0.0000 O   0  0  0  0  0  0  0  0  0  0  0  0
   18.9914    0.2500    0.0000 O   0  0  0  0  0  0  0  0  0  0  0  0
   12.9292    1.7500    0.0000 O   0  0  0  0  0  0  0  0  0  0  0  0
   16.3933   -3.2500    0.0000 O   0  0  0  0  0  0  0  0  0  0  0  0
   19.8574   -3.2500    0.0000 O   0  0  0  0  0  0  0  0  0  0  0  0
   12.0632    4.2500    0.0000 O   0  0  0  0  0  0  0  0  0  0  0  0
    9.4651    1.7500    0.0000 O   0  0  0  0  0  0  0  0  0  0  0  0
    7.7331    1.7500    0.0000 O   0  0  0  0  0  0  0  0  0  0  0  0
    5.1350    3.2500    0.0000 O   0  0  0  0  0  0  0  0  0  0  0  0
    2.5369    1.7500    0.0000 O   0  0  0  0  0  0  0  0  0  0  0  0
    6.0010    1.7500    0.0000 O   0  0  0  0  0  0  0  0  0  0  0  0
   18.1254   -4.2500    0.0000 N   0  0  0  0  0  0  0  0  0  0  0  0
   16.3933    2.7500    0.0000 C   0  0  1  0  0  0  0  0  0  0  0  0
   17.2594    1.2500    0.0000 C   0  0  2  0  0  0  0  0  0  0  0  0
   18.1254    1.7500    0.0000 C   0  0  1  0  0  0  0  0  0  0  0  0
   18.1254    2.7500    0.0000 C   0  0  2  0  0  0  0  0  0  0  0  0
   17.2594    3.2500    0.0000 C   0  0  0  0  0  0  0  0  0  0  0  0
   15.5273    3.2500    0.0000 C   0  0  0  0  0  0  0  0  0  0  0  0
   17.2594    0.2500    0.0000 C   0  0  0  0  0  0  0  0  0  0  0  0
   14.6613    2.7500    0.0000 C   0  0  2  0  0  0  0  0  0  0  0  0
   16.3933   -0.2500    0.0000 C   0  0  2  0  0  0  0  0  0  0  0  0
   18.9914    1.2500    0.0000 C   0  0  0  0  0  0  0  0  0  0  0  0
   13.7953    3.2500    0.0000 C   0  0  0  0  0  0  0  0  0  0  0  0
   17.2594   -1.7500    0.0000 C   0  0  2  0  0  0  0  0  0  0  0  0
   12.9292    2.7500    0.0000 C   0  0  2  0  0  0  0  0  0  0  0  0
   17.2594   -2.7500    0.0000 C   0  0  2  0  0  0  0  0  0  0  0  0
   18.1254   -3.2500    0.0000 C   0  0  2  0  0  0  0  0  0  0  0  0
   18.9914   -2.7500    0.0000 C   0  0  1  0  0  0  0  0  0  0  0  0
   18.9914   -1.7500    0.0000 C   0  0  1  0  0  0  0  0  0  0  0  0
   12.0632    3.2500    0.0000 C   0  0  1  0  0  0  0  0  0  0  0  0
   15.5273    0.2500    0.0000 C   0  0  0  0  0  0  0  0  0  0  0  0
   11.1972    2.7500    0.0000 C   0  0  0  0  0  0  0  0  0  0  0  0
   19.8574   -1.2500    0.0000 C   0  0  0  0  0  0  0  0  0  0  0  0
   10.3312    3.2500    0.0000 C   0  0  0  0  0  0  0  0  0  0  0  0
   14.6613   -0.2500    0.0000 C   0  0  0  0  0  0  0  0  0  0  0  0
    9.4651    2.7500    0.0000 C   0  0  2  0  0  0  0  0  0  0  0  0
    8.5991    3.2500    0.0000 C   0  0  0  0  0  0  0  0  0  0  0  0
    7.7331    2.7500    0.0000 C   0  0  2  0  0  0  0  0  0  0  0  0
   13.7953    0.2500    0.0000 C   0  0  0  0  0  0  0  0  0  0  0  0
    6.8671    3.2500    0.0000 C   0  0  0  0  0  0  0  0  0  0  0  0
    4.2690    1.7500    0.0000 C   0  0  2  0  0  0  0  0  0  0  0  0
    3.4030    1.2500    0.0000 C   0  0  1  0  0  0  0  0  0  0  0  0
    4.2690    2.7500    0.0000 C   0  0  2  0  0  0  0  0  0  0  0  0
    3.4030    0.2500    0.0000 C   0  0  1  0  0  0  0  0  0  0  0  0
   12.9292   -0.2500    0.0000 C   0  0  0  0  0  0  0  0  0  0  0  0
    6.0010    2.7500    0.0000 C   0  0  0  0  0  0  0  0  0  0  0  0
    5.1350    1.2500    0.0000 C   0  0  0  0  0  0  0  0  0  0  0  0
    3.4030    3.2500    0.0000 C   0  0  0  0  0  0  0  0  0  0  0  0
    2.5369   -0.2500    0.0000 C   0  0  0  0  0  0  0  0  0  0  0  0
    4.2690   -0.2500    0.0000 C   0  0  0  0  0  0  0  0  0  0  0  0
   12.0632    0.2500    0.0000 C   0  0  0  0  0  0  0  0  0  0  0  0
    5.1350    0.2500    0.0000 C   0  0  0  0  0  0  0  0  0  0  0  0
   11.1972   -0.2500    0.0000 C   0  0  0  0  0  0  0  0  0  0  0  0
    6.0010   -0.2500    0.0000 C   0  0  0  0  0  0  0  0  0  0  0  0
   10.3312    0.2500    0.0000 C   0  0  0  0  0  0  0  0  0  0  0  0
    6.8671    0.2500    0.0000 C   0  0  0  0  0  0  0  0  0  0  0  0
    9.4651   -0.2500    0.0000 C   0  0  0  0  0  0  0  0  0  0  0  0
    7.7331   -0.2500    0.0000 C   0  0  0  0  0  0  0  0  0  0  0  0
    8.5991    0.2500    0.0000 C   0  0  0  0  0  0  0  0  0  0  0  0
   16.5232    0.8250    0.0000 H   0  0  0  0  0  0  0  0  0  0  0  0
   18.1254    1.1300    0.0000 H   0  0  0  0  0  0  0  0  0  0  0  0
   18.1254    3.3700    0.0000 H   0  0  0  0  0  0  0  0  0  0  0  0
   17.6579    3.7250    0.0000 H   0  0  0  0  0  0  0  0  0  0  0  0
   16.8608    3.7250    0.0000 H   0  0  0  0  0  0  0  0  0  0  0  0
   15.9258    3.7250    0.0000 H   0  0  0  0  0  0  0  0  0  0  0  0
   15.1288    3.7250    0.0000 H   0  0  0  0  0  0  0  0  0  0  0  0
   17.4714   -0.3326    0.0000 H   0  0  0  0  0  0  0  0  0  0  0  0
   17.8699    0.3577    0.0000 H   0  0  0  0  0  0  0  0  0  0  0  0
   15.1982    2.4400    0.0000 H   0  0  0  0  0  0  0  0  0  0  0  0
   16.9303   -0.5600    0.0000 H   0  0  0  0  0  0  0  0  0  0  0  0
   14.1938    3.7250    0.0000 H   0  0  0  0  0  0  0  0  0  0  0  0
   13.3967    3.7250    0.0000 H   0  0  0  0  0  0  0  0  0  0  0  0
   16.9303    4.0600    0.0000 H   0  0  0  0  0  0  0  0  0  0  0  0
   17.2594   -1.1300    0.0000 H   0  0  0  0  0  0  0  0  0  0  0  0
   18.9914    3.8700    0.0000 H   0  0  0  0  0  0  0  0  0  0  0  0
   13.4662    2.4400    0.0000 H   0  0  0  0  0  0  0  0  0  0  0  0
   17.2594   -3.3700    0.0000 H   0  0  0  0  0  0  0  0  0  0  0  0
   18.6623   -3.5600    0.0000 H   0  0  0  0  0  0  0  0  0  0  0  0
   19.5284   -2.4400    0.0000 H   0  0  0  0  0  0  0  0  0  0  0  0
   18.9914   -1.1300    0.0000 H   0  0  0  0  0  0  0  0  0  0  0  0
   12.6001    3.5600    0.0000 H   0  0  0  0  0  0  0  0  0  0  0  0
   15.5273    0.8700    0.0000 H   0  0  0  0  0  0  0  0  0  0  0  0
   14.1244    1.4400    0.0000 H   0  0  0  0  0  0  0  0  0  0  0  0
   10.7987    2.2750    0.0000 H   0  0  0  0  0  0  0  0  0  0  0  0
   11.5957    2.2750    0.0000 H   0  0  0  0  0  0  0  0  0  0  0  0
   20.3944    1.4400    0.0000 H   0  0  0  0  0  0  0  0  0  0  0  0
   20.1674   -1.7869    0.0000 H   0  0  0  0  0  0  0  0  0  0  0  0
   20.3944   -0.9400    0.0000 H   0  0  0  0  0  0  0  0  0  0  0  0
   19.5474   -0.7131    0.0000 H   0  0  0  0  0  0  0  0  0  0  0  0
   10.7297    3.7250    0.0000 H   0  0  0  0  0  0  0  0  0  0  0  0
    9.9326    3.7250    0.0000 H   0  0  0  0  0  0  0  0  0  0  0  0
   18.6623   -4.5600    0.0000 H   0  0  0  0  0  0  0  0  0  0  0  0
   17.5885   -4.5600    0.0000 H   0  0  0  0  0  0  0  0  0  0  0  0
   12.3923    1.4400    0.0000 H   0  0  0  0  0  0  0  0  0  0  0  0
   16.3933   -3.8700    0.0000 H   0  0  0  0  0  0  0  0  0  0  0  0
   14.6613   -0.8700    0.0000 H   0  0  0  0  0  0  0  0  0  0  0  0
   10.0021    2.4400    0.0000 H   0  0  0  0  0  0  0  0  0  0  0  0
   20.3944   -2.9400    0.0000 H   0  0  0  0  0  0  0  0  0  0  0  0
   11.5263    4.5600    0.0000 H   0  0  0  0  0  0  0  0  0  0  0  0
    8.9976    3.7250    0.0000 H   0  0  0  0  0  0  0  0  0  0  0  0
    8.2006    3.7250    0.0000 H   0  0  0  0  0  0  0  0  0  0  0  0
    7.1962    2.4400    0.0000 H   0  0  0  0  0  0  0  0  0  0  0  0
   13.7953    0.8700    0.0000 H   0  0  0  0  0  0  0  0  0  0  0  0
    4.2690    1.1300    0.0000 H   0  0  0  0  0  0  0  0  0  0  0  0
    7.2656    3.7250    0.0000 H   0  0  0  0  0  0  0  0  0  0  0  0
    6.4685    3.7250    0.0000 H   0  0  0  0  0  0  0  0  0  0  0  0
   10.0021    1.4400    0.0000 H   0  0  0  0  0  0  0  0  0  0  0  0
    3.4030    1.8700    0.0000 H   0  0  0  0  0  0  0  0  0  0  0  0
    4.2690    3.3700    0.0000 H   0  0  0  0  0  0  0  0  0  0  0  0
    2.8660    0.5600    0.0000 H   0  0  0  0  0  0  0  0  0  0  0  0
   12.9292   -0.8700    0.0000 H   0  0  0  0  0  0  0  0  0  0  0  0
    4.8250    0.7131    0.0000 H   0  0  0  0  0  0  0  0  0  0  0  0
    5.6720    0.9400    0.0000 H   0  0  0  0  0  0  0  0  0  0  0  0
    5.4450    1.7869    0.0000 H   0  0  0  0  0  0  0  0  0  0  0  0
    8.2700    1.4400    0.0000 H   0  0  0  0  0  0  0  0  0  0  0  0
    3.7130    3.7869    0.0000 H   0  0  0  0  0  0  0  0  0  0  0  0
    2.8660    3.5600    0.0000 H   0  0  0  0  0  0  0  0  0  0  0  0
    3.0930    2.7131    0.0000 H   0  0  0  0  0  0  0  0  0  0  0  0
    2.2269    0.2869    0.0000 H   0  0  0  0  0  0  0  0  0  0  0  0
    2.0000   -0.5600    0.0000 H   0  0  0  0  0  0  0  0  0  0  0  0
    2.8469   -0.7869    0.0000 H   0  0  0  0  0  0  0  0  0  0  0  0
    4.2690   -0.8700    0.0000 H   0  0  0  0  0  0  0  0  0  0  0  0
    2.0000    1.4400    0.0000 H   0  0  0  0  0  0  0  0  0  0  0  0
   12.0632    0.8700    0.0000 H   0  0  0  0  0  0  0  0  0  0  0  0
    5.1350    0.8700    0.0000 H   0  0  0  0  0  0  0  0  0  0  0  0
   11.1972   -0.8700    0.0000 H   0  0  0  0  0  0  0  0  0  0  0  0
    6.0010   -0.8700    0.0000 H   0  0  0  0  0  0  0  0  0  0  0  0
   10.3312    0.8700    0.0000 H   0  0  0  0  0  0  0  0  0  0  0  0
    6.8671    0.8700    0.0000 H   0  0  0  0  0  0  0  0  0  0  0  0
    9.4651   -0.8700    0.0000 H   0  0  0  0  0  0  0  0  0  0  0  0
    7.7331   -0.8700    0.0000 H   0  0  0  0  0  0  0  0  0  0  0  0
    8.5991    0.8700    0.0000 H   0  0  0  0  0  0  0  0  0  0  0  0
  1 19  1  0  0  0  0
  1 20  1  0  0  0  0
 19  2  1  1  0  0  0
  2 79  1  0  0  0  0
 22  3  1  6  0  0  0
  3 81  1  0  0  0  0
 27  4  1  1  0  0  0
 30  4  1  6  0  0  0
  5 30  1  0  0  0  0
  5 35  1  0  0  0  0
 26  6  1  1  0  0  0
  6 89  1  0  0  0  0
  7 28  1  0  0  0  0
  7 92  1  0  0  0  0
  8 28  2  0  0  0  0
 31  9  1  1  0  0  0
  9100  1  0  0  0  0
 32 10  1  6  0  0  0
 10101  1  0  0  0  0
 34 11  1  1  0  0  0
 11104  1  0  0  0  0
 36 12  1  1  0  0  0
 12105  1  0  0  0  0
 42 13  1  1  0  0  0
 13113  1  0  0  0  0
 44 14  1  1  0  0  0
 14121  1  0  0  0  0
 15 49  1  0  0  0  0
 15 52  1  0  0  0  0
 48 16  1  1  0  0  0
 16129  1  0  0  0  0
 17 52  2  0  0  0  0
 33 18  1  6  0  0  0
 18 98  1  0  0  0  0
 18 99  1  0  0  0  0
 19 23  1  0  0  0  0
 19 24  1  0  0  0  0
 20 21  1  0  0  0  0
 20 25  1  0  0  0  0
 20 66  1  1  0  0  0
 21 22  1  0  0  0  0
 21 28  1  1  0  0  0
 21 67  1  0  0  0  0
 22 23  1  0  0  0  0
 22 68  1  0  0  0  0
 23 69  1  0  0  0  0
 23 70  1  0  0  0  0
 24 26  1  0  0  0  0
 24 71  1  0  0  0  0
 24 72  1  0  0  0  0
 25 27  1  0  0  0  0
 25 73  1  0  0  0  0
 25 74  1  0  0  0  0
 26 29  1  0  0  0  0
 26 75  1  0  0  0  0
 27 37  1  0  0  0  0
 27 76  1  0  0  0  0
 29 31  1  0  0  0  0
 29 77  1  0  0  0  0
 29 78  1  0  0  0  0
 30 32  1  0  0  0  0
 30 80  1  0  0  0  0
 31 36  1  0  0  0  0
 31 82  1  0  0  0  0
 32 33  1  0  0  0  0
 32 83  1  0  0  0  0
 33 34  1  0  0  0  0
 33 84  1  0  0  0  0
 34 35  1  0  0  0  0
 34 85  1  0  0  0  0
 35 39  1  6  0  0  0
 35 86  1  0  0  0  0
 36 38  1  0  0  0  0
 36 87  1  0  0  0  0
 37 41  2  0  0  0  0
 37 88  1  0  0  0  0
 38 40  1  0  0  0  0
 38 90  1  0  0  0  0
 38 91  1  0  0  0  0
 39 93  1  0  0  0  0
 39 94  1  0  0  0  0
 39 95  1  0  0  0  0
 40 42  1  0  0  0  0
 40 96  1  0  0  0  0
 40 97  1  0  0  0  0
 41 45  1  0  0  0  0
 41102  1  0  0  0  0
 42 43  1  0  0  0  0
 42103  1  0  0  0  0
 43 44  1  0  0  0  0
 43106  1  0  0  0  0
 43107  1  0  0  0  0
 44 46  1  0  0  0  0
 44108  1  0  0  0  0
 45 51  2  0  0  0  0
 45109  1  0  0  0  0
 46 52  1  0  0  0  0
 46111  1  0  0  0  0
 46112  1  0  0  0  0
 47 48  1  0  0  0  0
 47 49  1  0  0  0  0
 47 53  1  6  0  0  0
 47110  1  0  0  0  0
 48 50  1  0  0  0  0
 48114  1  0  0  0  0
 49 54  1  6  0  0  0
 49115  1  0  0  0  0
 50 55  1  6  0  0  0
 50 56  1  0  0  0  0
 50116  1  0  0  0  0
 51 57  1  0  0  0  0
 51117  1  0  0  0  0
 53118  1  0  0  0  0
 53119  1  0  0  0  0
 53120  1  0  0  0  0
 54122  1  0  0  0  0
 54123  1  0  0  0  0
 54124  1  0  0  0  0
 55125  1  0  0  0  0
 55126  1  0  0  0  0
 55127  1  0  0  0  0
 56 58  2  0  0  0  0
 56128  1  0  0  0  0
 57 59  2  0  0  0  0
 57130  1  0  0  0  0
 58 60  1  0  0  0  0
 58131  1  0  0  0  0
 59 61  1  0  0  0  0
 59132  1  0  0  0  0
 60 62  2  0  0  0  0
 60133  1  0  0  0  0
 61 63  2  0  0  0  0
 61134  1  0  0  0  0
 62 64  1  0  0  0  0
 62135  1  0  0  0  0
 63 65  1  0  0  0  0
 63136  1  0  0  0  0
 64 65  2  0  0  0  0
 64137  1  0  0  0  0
 65138  1  0  0  0  0
M  END
> <PUBCHEM_COMPOUND_CID>
5280965

> <PUBCHEM_COMPOUND_CANONICALIZED>
1

> <PUBCHEM_CACTVS_COMPLEXITY>
1670

> <PUBCHEM_CACTVS_HBOND_ACCEPTOR>
18

> <PUBCHEM_CACTVS_HBOND_DONOR>
12

> <PUBCHEM_CACTVS_ROTATABLE_BOND>
3

> <PUBCHEM_CACTVS_SUBSKEYS>
AAADcfB+PgAAAAAAAAAAAAAAAAAAAAAAAAAkSAAAAAAAAAAAAAAAHgAQCAAADTzxgAcCCABABgCIACDSCAAAAAAgAAAICIEAAAgbFBYAoQAiUAAH8AAPoAPI7OzOAAAAAAAAAAAAAAAAAAAAAAAAAAAAAA==

> <PUBCHEM_IUPAC_OPENEYE_NAME>
(1R,3S,5R,6R,9R,11R,15S,16R,17R,18S,19E,21E,23E,25E,27E,29E,31E,33R,35S,36R,37S)-33-[(2R,3S,4S,5S,6R)-4-amino-3,5-dihydroxy-6-methyl-tetrahydropyran-2-yl]oxy-1,3,5,6,9,11,17,37-octahydroxy-15,16,18-trimethyl-13-oxo-14,39-dioxabicyclo[33.3.1]nonatriaconta-19,21,23,25,27,29,31-heptaene-36-carboxylic acid

> <PUBCHEM_IUPAC_CAS_NAME>
(1R,3S,5R,6R,9R,11R,15S,16R,17R,18S,19E,21E,23E,25E,27E,29E,31E,33R,35S,36R,37S)-33-[[(2R,3S,4S,5S,6R)-4-amino-3,5-dihydroxy-6-methyl-2-oxanyl]oxy]-1,3,5,6,9,11,17,37-octahydroxy-15,16,18-trimethyl-13-oxo-14,39-dioxabicyclo[33.3.1]nonatriaconta-19,21,23,25,27,29,31-heptaene-36-carboxylic acid

> <PUBCHEM_IUPAC_NAME_MARKUP>
(1<I>R</I>,3<I>S</I>,5<I>R</I>,6<I>R</I>,9<I>R</I>,11<I>R</I>,15<I>S</I>,16<I>R</I>,17<I>R</I>,18<I>S</I>,19<I>E</I>,21<I>E</I>,23<I>E</I>,25<I>E</I>,27<I>E</I>,29<I>E</I>,31<I>E</I>,33<I>R</I>,35<I>S</I>,36<I>R</I>,37<I>S</I>)-33-[(2<I>R</I>,3<I>S</I>,4<I>S</I>,5<I>S</I>,6<I>R</I>)-4-amino-3,5-dihydroxy-6-methyloxan-2-yl]oxy-1,3,5,6,9,11,17,37-octahydroxy-15,16,18-trimethyl-13-oxo-14,39-dioxabicyclo[33.3.1]nonatriaconta-19,21,23,25,27,29,31-heptaene-36-carboxylic acid

> <PUBCHEM_IUPAC_NAME>
(1R,3S,5R,6R,9R,11R,15S,16R,17R,18S,19E,21E,23E,25E,27E,29E,31E,33R,35S,36R,37S)-33-[(2R,3S,4S,5S,6R)-4-amino-3,5-dihydroxy-6-methyloxan-2-yl]oxy-1,3,5,6,9,11,17,37-octahydroxy-15,16,18-trimethyl-13-oxo-14,39-dioxabicyclo[33.3.1]nonatriaconta-19,21,23,25,27,29,31-heptaene-36-carboxylic acid

> <PUBCHEM_IUPAC_SYSTEMATIC_NAME>
(1R,3S,5R,6R,9R,11R,15S,16R,17R,18S,19E,21E,23E,25E,27E,29E,31E,33R,35S,36R,37S)-33-[(2R,3S,4S,5S,6R)-4-azanyl-6-methyl-3,5-bis(oxidanyl)oxan-2-yl]oxy-15,16,18-trimethyl-1,3,5,6,9,11,17,37-octakis(oxidanyl)-13-oxidanylidene-14,39-dioxabicyclo[33.3.1]nonatriaconta-19,21,23,25,27,29,31-heptaene-36-carboxylic acid

> <PUBCHEM_IUPAC_TRADITIONAL_NAME>
(1R,3S,5R,6R,9R,11R,15S,16R,17R,18S,19E,21E,23E,25E,27E,29E,31E,33R,35S,36R,37S)-33-[(2R,3S,4S,5S,6R)-4-amino-3,5-dihydroxy-6-methyl-tetrahydropyran-2-yl]oxy-1,3,5,6,9,11,17,37-octahydroxy-13-keto-15,16,18-trimethyl-14,39-dioxabicyclo[33.3.1]nonatriaconta-19,21,23,25,27,29,31-heptaene-36-carboxylic acid

> <PUBCHEM_IUPAC_INCHI>
InChI=1S/C47H73NO17/c1-27-17-15-13-11-9-7-5-6-8-10-12-14-16-18-34(64-46-44(58)41(48)43(57)30(4)63-46)24-38-40(45(59)60)37(54)26-47(61,65-38)25-33(51)22-36(53)35(52)20-19-31(49)21-32(50)23-39(55)62-29(3)28(2)42(27)56/h5-18,27-38,40-44,46,49-54,56-58,61H,19-26,48H2,1-4H3,(H,59,60)/b6-5+,9-7+,10-8+,13-11+,14-12+,17-15+,18-16+/t27-,28-,29-,30+,31+,32+,33-,34-,35+,36+,37-,38-,40+,41-,42+,43+,44-,46-,47+/m0/s1

> <PUBCHEM_IUPAC_INCHIKEY>
APKFDSVGJQXUKY-INPOYWNPSA-N

> <PUBCHEM_XLOGP3_AA>
0

> <PUBCHEM_EXACT_MASS>
923.48785

> <PUBCHEM_MOLECULAR_FORMULA>
C47H73NO17

> <PUBCHEM_MOLECULAR_WEIGHT>
924.1

> <PUBCHEM_OPENEYE_CAN_SMILES>
CC1C=CC=CC=CC=CC=CC=CC=CC(CC2C(C(CC(O2)(CC(CC(C(CCC(CC(CC(=O)OC(C(C1O)C)C)O)O)O)O)O)O)O)C(=O)O)OC3C(C(C(C(O3)C)O)N)O

> <PUBCHEM_OPENEYE_ISO_SMILES>
C[C@H]1/C=C/C=C/C=C/C=C/C=C/C=C/C=C/[C@@H](C[C@H]2[C@@H]([C@H](C[C@](O2)(C[C@H](C[C@H]([C@@H](CC[C@H](C[C@H](CC(=O)O[C@H]([C@@H]([C@@H]1O)C)C)O)O)O)O)O)O)O)C(=O)O)O[C@H]3[C@H]([C@H]([C@@H]([C@H](O3)C)O)N)O

> <PUBCHEM_CACTVS_TPSA>
320

> <PUBCHEM_MONOISOTOPIC_WEIGHT>
923.48785

> <PUBCHEM_TOTAL_CHARGE>
0

> <PUBCHEM_HEAVY_ATOM_COUNT>
65

> <PUBCHEM_ATOM_DEF_STEREO_COUNT>
19

> <PUBCHEM_ATOM_UDEF_STEREO_COUNT>
0

> <PUBCHEM_BOND_DEF_STEREO_COUNT>
7

> <PUBCHEM_BOND_UDEF_STEREO_COUNT>
0

> <PUBCHEM_ISOTOPIC_ATOM_COUNT>
0

> <PUBCHEM_COMPONENT_COUNT>
1

> <PUBCHEM_CACTVS_TAUTO_COUNT>
-1

> <PUBCHEM_COORDINATE_TYPE>
1
5
255

> <PUBCHEM_BONDANNOTATIONS>
32  10  6
34  11  5
36  12  5
42  13  5
44  14  5
48  16  5
33  18  6
19  2  5
20  66  5
21  28  5
22  3  6
35  39  6
27  4  5
30  4  6
47  53  6
49  54  6
50  55  6
26  6  5
31  9  5

$$$$
7311
  -OEChem-06022007113D

 37 37  0     0  0  0  0  0  0999 V2000
    2.3959   -1.9893    0.0088 O   0  0  0  0  0  0  0  0  0  0  0  0
    2.2618    0.8640    0.0001 C   0  0  0  0  0  0  0  0  0  0  0  0
   -2.7100    0.4144   -0.0001 C   0  0  0  0  0  0  0  0  0  0  0  0
    1.0487   -0.0064    0.0021 C   0  0  0  0  0  0  0  0  0  0  0  0
   -1.3163   -0.2351    0.0032 C   0  0  0  0  0  0  0  0  0  0  0  0
   -0.2151    0.5838   -0.0005 C   0  0  0  0  0  0  0  0  0  0  0  0
    1.8723    2.3742   -0.0047 C   0  0  0  0  0  0  0  0  0  0  0  0
    3.1436    0.6003   -1.2589 C   0  0  0  0  0  0  0  0  0  0  0  0
    3.2179    0.6831    1.2248 C   0  0  0  0  0  0  0  0  0  0  0  0
   -3.4882   -0.0196    1.2608 C   0  0  0  0  0  0  0  0  0  0  0  0
   -3.4887   -0.0324   -1.2564 C   0  0  0  0  0  0  0  0  0  0  0  0
   -2.6795    1.9596   -0.0081 C   0  0  0  0  0  0  0  0  0  0  0  0
    1.1693   -1.3962    0.0082 C   0  0  0  0  0  0  0  0  0  0  0  0
   -1.2377   -1.6050    0.0090 C   0  0  0  0  0  0  0  0  0  0  0  0
    0.0261   -2.1954    0.0117 C   0  0  0  0  0  0  0  0  0  0  0  0
   -0.3336    1.6528   -0.0036 H   0  0  0  0  0  0  0  0  0  0  0  0
    2.7750    2.9991   -0.0182 H   0  0  0  0  0  0  0  0  0  0  0  0
    1.3056    2.6555   -0.9005 H   0  0  0  0  0  0  0  0  0  0  0  0
    1.3178    2.6654    0.8956 H   0  0  0  0  0  0  0  0  0  0  0  0
    2.5452    0.6790   -2.1745 H   0  0  0  0  0  0  0  0  0  0  0  0
    3.9517    1.3383   -1.3314 H   0  0  0  0  0  0  0  0  0  0  0  0
    3.6184   -0.3845   -1.2572 H   0  0  0  0  0  0  0  0  0  0  0  0
    4.0459    1.4009    1.1948 H   0  0  0  0  0  0  0  0  0  0  0  0
    2.6708    0.8392    2.1620 H   0  0  0  0  0  0  0  0  0  0  0  0
    3.6597   -0.3166    1.2685 H   0  0  0  0  0  0  0  0  0  0  0  0
   -4.4708    0.4650    1.3042 H   0  0  0  0  0  0  0  0  0  0  0  0
   -3.6658   -1.1001    1.2916 H   0  0  0  0  0  0  0  0  0  0  0  0
   -2.9435    0.2508    2.1733 H   0  0  0  0  0  0  0  0  