443387
  -OEChem-10051719223D

 50 53  0     1  0  0  0  0  0999 V2000
   -0.9884   -0.3890   -1.6805 S   0  0  0  0  0  0  0  0  0  0  0  0
   -1.8373    1.4240    2.2443 O   0  0  0  0  0  0  0  0  0  0  0  0
    0.3824   -0.1769    1.3716 O   0  0  0  0  0  0  0  0  0  0  0  0
   -4.5167   -2.2661    0.8752 O   0  0  0  0  0  0  0  0  0  0  0  0
   -5.0346   -0.0505    0.7373 O   0  0  0  0  0  0  0  0  0  0  0  0
   -2.5375    0.6211    0.1383 N   0  0  0  0  0  0  0  0  0  0  0  0
    0.4433    1.7382    0.0142 N   0  0  0  0  0  0  0  0  0  0  0  0
    2.6919    1.7635   -0.4536 N   0  0  0  0  0  0  0  0  0  0  0  0
   -1.8212    1.1108   -1.0432 C   0  0  1  0  0  0  0  0  0  0  0  0
   -1.0066    2.0052   -0.0986 C   0  0  1  0  0  0  0  0  0  0  0  0
   -2.7876   -0.8000    0.2701 C   0  0  2  0  0  0  0  0  0  0  0  0
   -2.3724   -1.4689   -1.0579 C   0  0  0  0  0  0  0  0  0  0  0  0
   -1.8479    1.3852    1.0348 C   0  0  0  0  0  0  0  0  0  0  0  0
    1.4700    2.5725   -0.5727 C   0  0  0  0  0  0  0  0  0  0  0  0
    0.9834    0.6819    0.7428 C   0  0  0  0  0  0  0  0  0  0  0  0
    2.4859    0.8083    0.6418 C   0  0  1  0  0  0  0  0  0  0  0  0
   -3.4709   -1.4933   -2.1295 C   0  0  0  0  0  0  0  0  0  0  0  0
   -1.8348   -2.8823   -0.8263 C   0  0  0  0  0  0  0  0  0  0  0  0
   -4.2260   -0.9622    0.6455 C   0  0  0  0  0  0  0  0  0  0  0  0
    1.2255    2.8430   -2.0591 C   0  0  0  0  0  0  0  0  0  0  0  0
    1.6278    3.8885    0.2000 C   0  0  0  0  0  0  0  0  0  0  0  0
    3.1827   -0.5063    0.3957 C   0  0  0  0  0  0  0  0  0  0  0  0
    3.6012   -1.2911    1.4730 C   0  0  0  0  0  0  0  0  0  0  0  0
    3.4124   -0.9451   -0.9107 C   0  0  0  0  0  0  0  0  0  0  0  0
    4.2455   -2.5072    1.2455 C   0  0  0  0  0  0  0  0  0  0  0  0
    4.0567   -2.1612   -1.1381 C   0  0  0  0  0  0  0  0  0  0  0  0
    4.4733   -2.9422   -0.0599 C   0  0  0  0  0  0  0  0  0  0  0  0
   -2.4737    1.6300   -1.7509 H   0  0  0  0  0  0  0  0  0  0  0  0
   -1.2176    3.0745   -0.2181 H   0  0  0  0  0  0  0  0  0  0  0  0
   -2.1832   -1.1608    1.1128 H   0  0  0  0  0  0  0  0  0  0  0  0
    2.8434    1.2605    1.5759 H   0  0  0  0  0  0  0  0  0  0  0  0
    3.5162    2.3378   -0.2867 H   0  0  0  0  0  0  0  0  0  0  0  0
   -4.2874   -2.1666   -1.8456 H   0  0  0  0  0  0  0  0  0  0  0  0
   -3.9089   -0.5029   -2.2972 H   0  0  0  0  0  0  0  0  0  0  0  0
   -3.0852   -1.8559   -3.0899 H   0  0  0  0  0  0  0  0  0  0  0  0
   -1.4525   -3.3237   -1.7543 H   0  0  0  0  0  0  0  0  0  0  0  0
   -1.0209   -2.8930   -0.0920 H   0  0  0  0  0  0  0  0  0  0  0  0
   -2.6199   -3.5482   -0.4528 H   0  0  0  0  0  0  0  0  0  0  0  0
    1.1274    1.9114   -2.6284 H   0  0  0  0  0  0  0  0  0  0  0  0
    0.3041    3.4157   -2.2132 H   0  0  0  0  0  0  0  0  0  0  0  0
    2.0486    3.4172   -2.5003 H   0  0  0  0  0  0  0  0  0  0  0  0
    2.4587    4.4859   -0.1925 H   0  0  0  0  0  0  0  0  0  0  0  0
    0.7198    4.4977    0.1298 H   0  0  0  0  0  0  0  0  0  0  0  0
    1.8142    3.7116    1.2659 H   0  0  0  0  0  0  0  0  0  0  0  0
   -5.4573   -2.3938    1.1223 H   0  0  0  0  0  0  0  0  0  0  0  0
    3.4279   -0.9641    2.4949 H   0  0  0  0  0  0  0  0  0  0  0  0
    3.0859   -0.3723   -1.7742 H   0  0  0  0  0  0  0  0  0  0  0  0
    4.5691   -3.1157    2.0849 H   0  0  0  0  0  0  0  0  0  0  0  0
    4.2302   -2.5025   -2.1544 H   0  0  0  0  0  0  0  0  0  0  0  0
    4.9738   -3.8896   -0.2371 H   0  0  0  0  0  0  0  0  0  0  0  0
  1  9  1  0  0  0  0
  1 12  1  0  0  0  0
  2 13  2  0  0  0  0
  3 15  2  0  0  0  0
  4 19  1  0  0  0  0
  4 45  1  0  0  0  0
  5 19  2  0  0  0  0
  6  9  1  0  0  0  0
  6 11  1  0  0  0  0
  6 13  1  0  0  0  0
  7 10  1  0  0  0  0
  7 14  1  0  0  0  0
  7 15  1  0  0  0  0
  8 14  1  0  0  0  0
  8 16  1  0  0  0  0
  8 32  1  0  0  0  0
  9 10  1  0  0  0  0
  9 28  1  0  0  0  0
 10 13  1  0  0  0  0
 10 29  1  0  0  0  0
 11 12  1  0  0  0  0
 11 19  1  0  0  0  0
 11 30  1  0  0  0  0
 12 17  1  0  0  0  0
 12 18  1  0  0  0  0
 14 20  1  0  0  0  0
 14 21  1  0  0  0  0
 15 16  1  0  0  0  0
 16 22  1  0  0  0  0
 16 31  1  0  0  0  0
 17 33  1  0  0  0  0
 17 34  1  0  0  0  0
 17 35  1  0  0  0  0
 18 36  1  0  0  0  0
 18 37  1  0  0  0  0
 18 38  1  0  0  0  0
 20 39  1  0  0  0  0
 20 40  1  0  0  0  0
 20 41  1  0  0  0  0
 21 42  1  0  0  0  0
 21 43  1  0  0  0  0
 21 44  1  0  0  0  0
 22 23  2  0  0  0  0
 22 24  1  0  0  0  0
 23 25  1  0  0  0  0
 23 46  1  0  0  0  0
 24 26  2  0  0  0  0
 24 47  1  0  0  0  0
 25 27  2  0  0  0  0
 25 48  1  0  0  0  0
 26 27  1  0  0  0  0
 26 49  1  0  0  0  0
 27 50  1  0  0  0  0
M  END
> <DATABASE_ID>
DB00739

> <DATABASE_NAME>
drugbank

> <ORIGINAL_SOURCE>
PUBCHEM

> <ORIGINAL_SOURCE_URL>
https://pubchem.ncbi.nlm.nih.gov/rest/pug/compound/inchikey/DXVUYOAEDJXBPY-NFFDBFGFSA-N/SDF?record_type=3d

> <SMILES>
[H][C@]12SC(C)(C)[C@@H](N1C(=O)[C@H]2N1C(=O)[C@H](NC1(C)C)C1=CC=CC=C1)C(O)=O

> <INCHI_IDENTIFIER>
InChI=1S/C19H23N3O4S/c1-18(2)13(17(25)26)21-15(24)12(16(21)27-18)22-14(23)11(20-19(22,3)4)10-8-6-5-7-9-10/h5-9,11-13,16,20H,1-4H3,(H,25,26)/t11-,12-,13+,16-/m1/s1

> <INCHI_KEY>
DXVUYOAEDJXBPY-NFFDBFGFSA-N

> <FORMULA>
C19H23N3O4S

> <MOLECULAR_WEIGHT>
389.469

> <EXACT_MASS>
389.140926929

> <JCHEM_ACCEPTOR_COUNT>
5

> <JCHEM_AVERAGE_POLARIZABILITY>
39.58154278946702

> <JCHEM_BIOAVAILABILITY>
1

> <JCHEM_DONOR_COUNT>
2

> <JCHEM_FORMAL_CHARGE>
0

> <JCHEM_GHOSE_FILTER>
0

> <JCHEM_IUPAC>
(2S,5R,6R)-6-[(4R)-2,2-dimethyl-5-oxo-4-phenylimidazolidin-1-yl]-3,3-dimethyl-7-oxo-4-thia-1-azabicyclo[3.2.0]heptane-2-carboxylic acid

> <ALOGPS_LOGP>
0.85

> <JCHEM_LOGP>
-0.015010228405816369

> <ALOGPS_LOGS>
-2.88

> <JCHEM_MDDR_LIKE_RULE>
0

> <JCHEM_NUMBER_OF_RINGS>
4

> <JCHEM_PHYSIOLOGICAL_CHARGE>
-1

> <JCHEM_PKA>
14.993524451963172

> <JCHEM_PKA_STRONGEST_ACIDIC>
3.626005434143019

> <JCHEM_PKA_STRONGEST_BASIC>
5.474500567056694

> <JCHEM_POLAR_SURFACE_AREA>
89.94999999999999

> <JCHEM_REFRACTIVITY>
99.89940000000003

> <JCHEM_ROTATABLE_BOND_COUNT>
3

> <JCHEM_RULE_OF_FIVE>
1

> <ALOGPS_SOLUBILITY>
5.12e-01 g/l

> <JCHEM_TRADITIONAL_IUPAC>
hetacillin

> <JCHEM_VEBER_RULE>
0

$$$$
