5320
  -OEChem-10051719193D

 24 24  0     0  0  0  0  0  0999 V2000
    1.1675   -1.2750   -0.2485 S   0  0  0  0  0  0  0  0  0  0  0  0
    1.1709   -2.5850    0.3893 O   0  0  0  0  0  0  0  0  0  0  0  0
    1.5888   -1.1505   -1.6372 O   0  0  0  0  0  0  0  0  0  0  0  0
    2.4302    1.5112   -0.8735 O   0  0  0  0  0  0  0  0  0  0  0  0
    2.0936   -0.1934    0.7062 N   0  0  0  0  0  0  0  0  0  0  0  0
   -4.2760    1.0753    0.2018 N   0  0  0  0  0  0  0  0  0  0  0  0
   -0.4309   -0.5850   -0.1165 C   0  0  0  0  0  0  0  0  0  0  0  0
   -1.2820   -0.9888    0.9123 C   0  0  0  0  0  0  0  0  0  0  0  0
   -0.8569    0.3700   -1.0398 C   0  0  0  0  0  0  0  0  0  0  0  0
   -2.9850    0.5171    0.0947 C   0  0  0  0  0  0  0  0  0  0  0  0
   -2.5591   -0.4378    1.0178 C   0  0  0  0  0  0  0  0  0  0  0  0
   -2.1340    0.9211   -0.9341 C   0  0  0  0  0  0  0  0  0  0  0  0
    2.6228    1.0545    0.2477 C   0  0  0  0  0  0  0  0  0  0  0  0
    3.4502    1.7662    1.2796 C   0  0  0  0  0  0  0  0  0  0  0  0
   -0.9680   -1.7262    1.6456 H   0  0  0  0  0  0  0  0  0  0  0  0
   -0.2110    0.7034   -1.8470 H   0  0  0  0  0  0  0  0  0  0  0  0
    2.3319   -0.5044    1.6570 H   0  0  0  0  0  0  0  0  0  0  0  0
   -3.2125   -0.7595    1.8248 H   0  0  0  0  0  0  0  0  0  0  0  0
   -2.4540    1.6654   -1.6589 H   0  0  0  0  0  0  0  0  0  0  0  0
    4.3038    1.1441    1.5614 H   0  0  0  0  0  0  0  0  0  0  0  0
    3.8190    2.7105    0.8697 H   0  0  0  0  0  0  0  0  0  0  0  0
    2.8390    1.9770    2.1612 H   0  0  0  0  0  0  0  0  0  0  0  0
   -4.8942    0.7818    0.9465 H   0  0  0  0  0  0  0  0  0  0  0  0
   -4.5857    1.7666   -0.4682 H   0  0  0  0  0  0  0  0  0  0  0  0
  1  2  2  0  0  0  0
  1  3  2  0  0  0  0
  1  5  1  0  0  0  0
  1  7  1  0  0  0  0
  4 13  2  0  0  0  0
  5 13  1  0  0  0  0
  5 17  1  0  0  0  0
  6 10  1  0  0  0  0
  6 23  1  0  0  0  0
  6 24  1  0  0  0  0
  7  8  2  0  0  0  0
  7  9  1  0  0  0  0
  8 11  1  0  0  0  0
  8 15  1  0  0  0  0
  9 12  2  0  0  0  0
  9 16  1  0  0  0  0
 10 11  2  0  0  0  0
 10 12  1  0  0  0  0
 11 18  1  0  0  0  0
 12 19  1  0  0  0  0
 13 14  1  0  0  0  0
 14 20  1  0  0  0  0
 14 21  1  0  0  0  0
 14 22  1  0  0  0  0
M  END
> <DATABASE_ID>
DB00634

> <DATABASE_NAME>
drugbank

> <ORIGINAL_SOURCE>
PUBCHEM

> <ORIGINAL_SOURCE_URL>
https://pubchem.ncbi.nlm.nih.gov/rest/pug/compound/inchikey/SKIVFJLNDNKQPD-UHFFFAOYSA-N/SDF?record_type=3d

> <SMILES>
CC(=O)NS(=O)(=O)C1=CC=C(N)C=C1

> <INCHI_IDENTIFIER>
InChI=1S/C8H10N2O3S/c1-6(11)10-14(12,13)8-4-2-7(9)3-5-8/h2-5H,9H2,1H3,(H,10,11)

> <INCHI_KEY>
SKIVFJLNDNKQPD-UHFFFAOYSA-N

> <FORMULA>
C8H10N2O3S

> <MOLECULAR_WEIGHT>
214.242

> <EXACT_MASS>
214.041212886

> <JCHEM_ACCEPTOR_COUNT>
4

> <JCHEM_AVERAGE_POLARIZABILITY>
20.491204809580424

> <JCHEM_BIOAVAILABILITY>
1

> <JCHEM_DONOR_COUNT>
2

> <JCHEM_FORMAL_CHARGE>
0

> <JCHEM_GHOSE_FILTER>
1

> <JCHEM_IUPAC>
N-(4-aminobenzenesulfonyl)acetamide

> <ALOGPS_LOGP>
0.15

> <JCHEM_LOGP>
-0.2610410626666669

> <ALOGPS_LOGS>
-1.71

> <JCHEM_MDDR_LIKE_RULE>
0

> <JCHEM_NUMBER_OF_RINGS>
1

> <JCHEM_PHYSIOLOGICAL_CHARGE>
-1

> <JCHEM_PKA_STRONGEST_ACIDIC>
4.299983698566216

> <JCHEM_PKA_STRONGEST_BASIC>
2.1375402711797

> <JCHEM_POLAR_SURFACE_AREA>
89.26

> <JCHEM_REFRACTIVITY>
52.482200000000006

> <JCHEM_ROTATABLE_BOND_COUNT>
1

> <JCHEM_RULE_OF_FIVE>
1

> <ALOGPS_SOLUBILITY>
4.21e+00 g/l

> <JCHEM_TRADITIONAL_IUPAC>
sulfacetamide

> <JCHEM_VEBER_RULE>
0

$$$$
