72474
  -OEChem-10051719133D

 48 51  0     1  0  0  0  0  0999 V2000
    2.0618   -2.5049    0.5781 F   0  0  0  0  0  0  0  0  0  0  0  0
   -3.0074   -2.4031    0.2757 O   0  0  0  0  0  0  0  0  0  0  0  0
   -5.3038   -1.6262   -0.6386 O   0  0  0  0  0  0  0  0  0  0  0  0
   -5.8652    0.4587    0.1154 O   0  0  0  0  0  0  0  0  0  0  0  0
   -1.7898    1.4377   -0.3405 N   0  0  0  0  0  0  0  0  0  0  0  0
    2.8956    0.0938    0.1605 N   0  0  1  0  0  0  0  0  0  0  0  0
    5.6345    0.8670   -0.0272 N   0  0  0  0  0  0  0  0  0  0  0  0
   -1.4435    2.8569   -0.5722 C   0  0  0  0  0  0  0  0  0  0  0  0
   -2.0502    3.9375    0.2599 C   0  0  0  0  0  0  0  0  0  0  0  0
   -0.5934    3.6056    0.4000 C   0  0  0  0  0  0  0  0  0  0  0  0
   -0.7883    0.4522   -0.1092 C   0  0  0  0  0  0  0  0  0  0  0  0
   -3.1209    1.0685   -0.3493 C   0  0  0  0  0  0  0  0  0  0  0  0
   -1.1698   -0.8895    0.1082 C   0  0  0  0  0  0  0  0  0  0  0  0
    1.5364   -0.2386    0.1440 C   0  0  0  0  0  0  0  0  0  0  0  0
    3.7799   -0.5649   -0.8118 C   0  0  0  0  0  0  0  0  0  0  0  0
    0.5825    0.7567   -0.0867 C   0  0  0  0  0  0  0  0  0  0  0  0
    5.2380   -0.5124   -0.3317 C   0  0  1  0  0  0  0  0  0  0  0  0
    3.3111    1.4320    0.5928 C   0  0  0  0  0  0  0  0  0  0  0  0
    4.7784    1.4236    1.0183 C   0  0  0  0  0  0  0  0  0  0  0  0
   -0.2133   -1.8858    0.3392 C   0  0  0  0  0  0  0  0  0  0  0  0
   -3.5889   -0.1707   -0.1551 C   0  0  0  0  0  0  0  0  0  0  0  0
   -2.6098   -1.2593    0.0931 C   0  0  0  0  0  0  0  0  0  0  0  0
    1.1394   -1.5557    0.3563 C   0  0  0  0  0  0  0  0  0  0  0  0
    6.1755   -1.0783   -1.3970 C   0  0  0  0  0  0  0  0  0  0  0  0
   -0.5514   -3.3231    0.5774 C   0  0  0  0  0  0  0  0  0  0  0  0
   -5.0376   -0.3780   -0.1995 C   0  0  0  0  0  0  0  0  0  0  0  0
   -1.2941    3.0699   -1.6259 H   0  0  0  0  0  0  0  0  0  0  0  0
   -2.7012    3.6704    1.0832 H   0  0  0  0  0  0  0  0  0  0  0  0
   -2.3105    4.8673   -0.2309 H   0  0  0  0  0  0  0  0  0  0  0  0
    0.1241    4.3142    0.0044 H   0  0  0  0  0  0  0  0  0  0  0  0
   -0.2952    3.1433    1.3331 H   0  0  0  0  0  0  0  0  0  0  0  0
   -3.7921    1.8986   -0.5484 H   0  0  0  0  0  0  0  0  0  0  0  0
    3.6752   -0.0593   -1.7815 H   0  0  0  0  0  0  0  0  0  0  0  0
    3.5054   -1.6130   -0.9739 H   0  0  0  0  0  0  0  0  0  0  0  0
    5.3463   -1.1230    0.5743 H   0  0  0  0  0  0  0  0  0  0  0  0
    0.9182    1.7625   -0.3100 H   0  0  0  0  0  0  0  0  0  0  0  0
    2.7113    1.7686    1.4476 H   0  0  0  0  0  0  0  0  0  0  0  0
    3.1716    2.1503   -0.2253 H   0  0  0  0  0  0  0  0  0  0  0  0
    5.1014    2.4467    1.2400 H   0  0  0  0  0  0  0  0  0  0  0  0
    4.9034    0.8472    1.9433 H   0  0  0  0  0  0  0  0  0  0  0  0
    5.5497    1.4368   -0.8693 H   0  0  0  0  0  0  0  0  0  0  0  0
    5.9190   -2.1190   -1.6226 H   0  0  0  0  0  0  0  0  0  0  0  0
    6.1177   -0.5077   -2.3308 H   0  0  0  0  0  0  0  0  0  0  0  0
    7.2157   -1.0597   -1.0529 H   0  0  0  0  0  0  0  0  0  0  0  0
   -1.1610   -3.4351    1.4800 H   0  0  0  0  0  0  0  0  0  0  0  0
   -1.0631   -3.7516   -0.2905 H   0  0  0  0  0  0  0  0  0  0  0  0
    0.3382   -3.9424    0.7371 H   0  0  0  0  0  0  0  0  0  0  0  0
   -6.2676   -1.8040   -0.6821 H   0  0  0  0  0  0  0  0  0  0  0  0
  1 23  1  0  0  0  0
  2 22  2  0  0  0  0
  3 26  1  0  0  0  0
  3 48  1  0  0  0  0
  4 26  2  0  0  0  0
  5  8  1  0  0  0  0
  5 11  1  0  0  0  0
  5 12  1  0  0  0  0
  6 14  1  0  0  0  0
  6 15  1  0  0  0  0
  6 18  1  0  0  0  0
  7 17  1  0  0  0  0
  7 19  1  0  0  0  0
  7 41  1  0  0  0  0
  8  9  1  0  0  0  0
  8 10  1  0  0  0  0
  8 27  1  0  0  0  0
  9 10  1  0  0  0  0
  9 28  1  0  0  0  0
  9 29  1  0  0  0  0
 10 30  1  0  0  0  0
 10 31  1  0  0  0  0
 11 13  1  0  0  0  0
 11 16  2  0  0  0  0
 12 21  2  0  0  0  0
 12 32  1  0  0  0  0
 13 20  2  0  0  0  0
 13 22  1  0  0  0  0
 14 16  1  0  0  0  0
 14 23  2  0  0  0  0
 15 17  1  0  0  0  0
 15 33  1  0  0  0  0
 15 34  1  0  0  0  0
 16 36  1  0  0  0  0
 17 24  1  0  0  0  0
 17 35  1  0  0  0  0
 18 19  1  0  0  0  0
 18 37  1  0  0  0  0
 18 38  1  0  0  0  0
 19 39  1  0  0  0  0
 19 40  1  0  0  0  0
 20 23  1  0  0  0  0
 20 25  1  0  0  0  0
 21 22  1  0  0  0  0
 21 26  1  0  0  0  0
 24 42  1  0  0  0  0
 24 43  1  0  0  0  0
 24 44  1  0  0  0  0
 25 45  1  0  0  0  0
 25 46  1  0  0  0  0
 25 47  1  0  0  0  0
M  END
> <DATABASE_ID>
DB00365

> <DATABASE_NAME>
drugbank

> <ORIGINAL_SOURCE>
PUBCHEM

> <ORIGINAL_SOURCE_URL>
https://pubchem.ncbi.nlm.nih.gov/rest/pug/compound/inchikey/AIJTTZAVMXIJGM-UHFFFAOYSA-N/SDF?record_type=3d

> <SMILES>
CC1CN(CCN1)C1=C(F)C(C)=C2C(=O)C(=CN(C3CC3)C2=C1)C(O)=O

> <INCHI_IDENTIFIER>
InChI=1S/C19H22FN3O3/c1-10-8-22(6-5-21-10)15-7-14-16(11(2)17(15)20)18(24)13(19(25)26)9-23(14)12-3-4-12/h7,9-10,12,21H,3-6,8H2,1-2H3,(H,25,26)

> <INCHI_KEY>
AIJTTZAVMXIJGM-UHFFFAOYSA-N

> <FORMULA>
C19H22FN3O3

> <MOLECULAR_WEIGHT>
359.3947

> <EXACT_MASS>
359.16451979

> <JCHEM_ACCEPTOR_COUNT>
6

> <JCHEM_AVERAGE_POLARIZABILITY>
37.692870910728004

> <JCHEM_BIOAVAILABILITY>
1

> <JCHEM_DONOR_COUNT>
2

> <JCHEM_FORMAL_CHARGE>
0

> <JCHEM_GHOSE_FILTER>
1

> <JCHEM_IUPAC>
1-cyclopropyl-6-fluoro-5-methyl-7-(3-methylpiperazin-1-yl)-4-oxo-1,4-dihydroquinoline-3-carboxylic acid

> <ALOGPS_LOGP>
-0.12

> <JCHEM_LOGP>
0.11811200672493903

> <ALOGPS_LOGS>
-2.76

> <JCHEM_MDDR_LIKE_RULE>
0

> <JCHEM_NUMBER_OF_RINGS>
4

> <JCHEM_PHYSIOLOGICAL_CHARGE>
0

> <JCHEM_PKA_STRONGEST_ACIDIC>
5.876593176832228

> <JCHEM_PKA_STRONGEST_BASIC>
8.770720290866418

> <JCHEM_POLAR_SURFACE_AREA>
72.88

> <JCHEM_REFRACTIVITY>
97.39939999999999

> <JCHEM_ROTATABLE_BOND_COUNT>
3

> <JCHEM_RULE_OF_FIVE>
1

> <ALOGPS_SOLUBILITY>
6.32e-01 g/l

> <JCHEM_TRADITIONAL_IUPAC>
grepafloxacin

> <JCHEM_VEBER_RULE>
0

$$$$
