
  Mrv1902 02281916142D          

 86 87  0  0  0  0            999 V2000
    6.8044   -2.0573    0.0000 N   0  0  0  0  0  0  0  0  0  0  0  0
    6.0896   -2.4673    0.0000 C   0  0  2  0  0  0  0  0  0  0  0  0
   -2.4898    0.0075    0.0000 C   0  0  1  0  0  0  0  0  0  0  0  0
   -1.7699    0.4125    0.0000 C   0  0  0  0  0  0  0  0  0  0  0  0
    6.7945    1.2274    0.0000 N   0  0  0  0  0  0  0  0  0  0  0  0
    4.6646    1.6424    0.0000 N   0  0  0  0  0  0  0  0  0  0  0  0
   -3.1998    0.4125    0.0000 N   0  0  0  0  0  0  0  0  0  0  0  0
    8.2143    0.4125    0.0000 N   0  0  0  0  0  0  0  0  0  0  0  0
    7.5094   -2.4673    0.0000 C   0  0  0  0  0  0  0  0  0  0  0  0
    8.2194   -1.2323    0.0000 N   0  0  0  0  0  0  0  0  0  0  0  0
    2.5298    1.1975    0.0000 N   0  0  0  0  0  0  0  0  0  0  0  0
    6.0896    1.6424    0.0000 C   0  0  0  0  0  0  0  0  0  0  0  0
    8.2194    1.2374    0.0000 C   0  0  0  0  0  0  0  0  0  0  0  0
    3.9447    1.2223    0.0000 C   0  0  0  0  0  0  0  0  0  0  0  0
    8.9243   -0.8173    0.0000 C   0  0  0  0  0  0  0  0  0  0  0  0
    2.5198    0.3824    0.0000 C   0  0  0  0  0  0  0  0  0  0  0  0
   -3.9147    0.0075    0.0000 C   0  0  0  0  0  0  0  0  0  0  0  0
    5.2745   -2.4622    0.0000 C   0  0  0  0  0  0  0  0  0  0  0  0
    5.3796    1.2223    0.0000 C   0  0  1  0  0  0  0  0  0  0  0  0
    7.5094    1.6424    0.0000 C   0  0  2  0  0  0  0  0  0  0  0  0
    0.3749    0.0075    0.0000 C   0  0  0  0  0  0  0  0  0  0  0  0
   -1.0499    0.0075    0.0000 N   0  0  0  0  0  0  0  0  0  0  0  0
    1.0949    0.3974    0.0000 N   0  0  0  0  0  0  0  0  0  0  0  0
    8.2194   -2.0473    0.0000 C   0  0  1  0  0  0  0  0  0  0  0  0
    3.2397    1.6273    0.0000 C   0  0  1  0  0  0  0  0  0  0  0  0
    8.9243    0.0075    0.0000 C   0  0  2  0  0  0  0  0  0  0  0  0
    1.7998   -0.0225    0.0000 C   0  0  1  0  0  0  0  0  0  0  0  0
   -5.3546    0.0075    0.0000 N   0  0  0  0  0  0  0  0  0  0  0  0
   -0.3449    0.4125    0.0000 C   0  0  1  0  0  0  0  0  0  0  0  0
    4.8545   -3.1722    0.0000 N   0  0  0  0  0  0  0  0  0  0  0  0
   -4.6347    0.4175    0.0000 C   0  0  1  0  0  0  0  0  0  0  0  0
   -6.0646    0.4125    0.0000 C   0  0  0  0  0  0  0  0  0  0  0  0
   -1.7699    1.2374    0.0000 O   0  0  0  0  0  0  0  0  0  0  0  0
    7.5094   -3.2923    0.0000 O   0  0  0  0  0  0  0  0  0  0  0  0
    8.9343    1.6424    0.0000 O   0  0  0  0  0  0  0  0  0  0  0  0
    6.0896    2.4673    0.0000 O   0  0  0  0  0  0  0  0  0  0  0  0
    3.9597    0.3974    0.0000 O   0  0  0  0  0  0  0  0  0  0  0  0
    9.6443   -1.2323    0.0000 O   0  0  0  0  0  0  0  0  0  0  0  0
    3.2347   -0.0375    0.0000 O   0  0  0  0  0  0  0  0  0  0  0  0
    5.3796    0.3974    0.0000 C   0  0  0  0  0  0  0  0  0  0  0  0
   -3.9147   -0.8173    0.0000 O   0  0  0  0  0  0  0  0  0  0  0  0
    0.3749   -0.8273    0.0000 O   0  0  0  0  0  0  0  0  0  0  0  0
    4.8596   -1.7423    0.0000 O   0  0  0  0  0  0  0  0  0  0  0  0
    7.4995    2.4673    0.0000 C   0  0  0  0  0  0  0  0  0  0  0  0
    6.0896   -3.2923    0.0000 C   0  0  2  0  0  0  0  0  0  0  0  0
   -2.4898   -0.8273    0.0000 C   0  0  2  0  0  0  0  0  0  0  0  0
   -6.0646    1.2374    0.0000 O   0  0  0  0  0  0  0  0  0  0  0  0
    1.7848   -0.8474    0.0000 C   0  0  0  0  0  0  0  0  0  0  0  0
    4.0296   -3.1722    0.0000 C   0  0  0  0  0  0  0  0  0  0  0  0
    8.9394   -2.4673    0.0000 C   0  0  0  0  0  0  0  0  0  0  0  0
    9.6443    0.4125    0.0000 C   0  0  0  0  0  0  0  0  0  0  0  0
    3.2247    2.4522    0.0000 C   0  0  0  0  0  0  0  0  0  0  0  0
   -0.3449    1.2374    0.0000 C   0  0  0  0  0  0  0  0  0  0  0  0
   -4.6347    1.2424    0.0000 C   0  0  0  0  0  0  0  0  0  0  0  0
    6.0896   -0.0075    0.0000 C   0  0  0  0  0  0  0  0  0  0  0  0
   11.0692    0.4125    0.0000 N   0  0  0  0  0  0  0  0  0  0  0  0
   -3.9147    2.4823    0.0000 N   0  0  0  0  0  0  0  0  0  0  0  0
    0.3749    2.4823    0.0000 N   0  0  0  0  0  0  0  0  0  0  0  0
    9.6593   -3.6972    0.0000 N   0  0  0  0  0  0  0  0  0  0  0  0
    2.4898    3.6822    0.0000 N   0  0  0  0  0  0  0  0  0  0  0  0
    5.3846   -3.7122    0.0000 O   0  0  0  0  0  0  0  0  0  0  0  0
   -1.7699   -1.2374    0.0000 O   0  0  0  0  0  0  0  0  0  0  0  0
    8.2194    2.8873    0.0000 C   0  0  0  0  0  0  0  0  0  0  0  0
   -6.7795    0.0075    0.0000 C   0  0  0  0  0  0  0  0  0  0  0  0
   10.3592    0.0075    0.0000 C   0  0  0  0  0  0  0  0  0  0  0  0
    2.5048    2.8572    0.0000 C   0  0  0  0  0  0  0  0  0  0  0  0
    8.9394   -3.2923    0.0000 C   0  0  0  0  0  0  0  0  0  0  0  0
   -3.9147    1.6574    0.0000 C   0  0  0  0  0  0  0  0  0  0  0  0
    0.3749    1.6574    0.0000 C   0  0  0  0  0  0  0  0  0  0  0  0
    6.8095   -3.7122    0.0000 C   0  0  0  0  0  0  0  0  0  0  0  0
   -3.1998   -1.2374    0.0000 C   0  0  0  0  0  0  0  0  0  0  0  0
    6.0896   -0.8423    0.0000 C   0  0  0  0  0  0  0  0  0  0  0  0
    6.8044    0.4025    0.0000 C   0  0  0  0  0  0  0  0  0  0  0  0
   -9.6443    0.0075    0.0000 C   0  0  0  0  0  0  0  0  0  0  0  0
   -7.4895    0.4125    0.0000 C   0  0  0  0  0  0  0  0  0  0  0  0
  -10.3543    0.4125    0.0000 C   0  0  0  0  0  0  0  0  0  0  0  0
   -8.9243    0.4125    0.0000 C   0  0  0  0  0  0  0  0  0  0  0  0
    8.9394    2.4723    0.0000 C   0  0  0  0  0  0  0  0  0  0  0  0
    8.2194    3.7122    0.0000 C   0  0  0  0  0  0  0  0  0  0  0  0
   -8.2044    0.0075    0.0000 C   0  0  0  0  0  0  0  0  0  0  0  0
   -9.6443   -0.8273    0.0000 C   0  0  0  0  0  0  0  0  0  0  0  0
  -11.0692   -0.0024    0.0000 C   0  0  0  0  0  0  0  0  0  0  0  0
    6.8044   -1.2473    0.0000 C   0  0  0  0  0  0  0  0  0  0  0  0
    7.5145   -0.0024    0.0000 C   0  0  0  0  0  0  0  0  0  0  0  0
    7.5244   -0.8324    0.0000 C   0  0  0  0  0  0  0  0  0  0  0  0
    7.1279   -3.0687    0.0000 H   0  0  0  0  0  0  0  0  0  0  0  0
  2  1  1  0  0  0  0
  3  4  1  0  0  0  0
  4 22  1  0  0  0  0
  5 20  1  0  0  0  0
  6 14  1  0  0  0  0
  3  7  1  6  0  0  0
  8 26  1  0  0  0  0
  9  1  1  0  0  0  0
 10 24  1  0  0  0  0
 11 16  1  0  0  0  0
 12  5  1  0  0  0  0
 13  8  1  0  0  0  0
 14 25  1  0  0  0  0
 15 10  1  0  0  0  0
 16 27  1  0  0  0  0
 17  7  1  0  0  0  0
 18  2  1  0  0  0  0
 19 12  1  0  0  0  0
 20 13  1  0  0  0  0
 21 23  1  0  0  0  0
 29 22  1  1  0  0  0
 27 23  1  6  0  0  0
 24  9  1  0  0  0  0
 25 11  1  0  0  0  0
 26 15  1  0  0  0  0
 27 48  1  0  0  0  0
 31 28  1  1  0  0  0
 29 21  1  0  0  0  0
 30 18  1  0  0  0  0
 31 17  1  0  0  0  0
 32 28  1  0  0  0  0
 33  4  2  0  0  0  0
 34  9  2  0  0  0  0
 35 13  2  0  0  0  0
 36 12  2  0  0  0  0
 37 14  2  0  0  0  0
 38 15  2  0  0  0  0
 39 16  2  0  0  0  0
 19 40  1  1  0  0  0
 41 17  2  0  0  0  0
 42 21  2  0  0  0  0
 43 18  2  0  0  0  0
 20 44  1  1  0  0  0
 45  2  1  0  0  0  0
 46  3  1  0  0  0  0
 47 32  2  0  0  0  0
 48 49  1  0  0  0  0
 49 30  1  0  0  0  0
 24 50  1  1  0  0  0
 26 51  1  1  0  0  0
 25 52  1  6  0  0  0
 29 53  1  0  0  0  0
 31 54  1  0  0  0  0
 55 40  1  0  0  0  0
 56 65  1  0  0  0  0
 57 68  1  0  0  0  0
 58 69  1  0  0  0  0
 59 67  1  0  0  0  0
 60 66  1  0  0  0  0
 45 61  1  1  0  0  0
 46 62  1  6  0  0  0
 63 44  1  0  0  0  0
 64 32  1  0  0  0  0
 65 51  1  0  0  0  0
 66 52  1  0  0  0  0
 67 50  1  0  0  0  0
 68 54  1  0  0  0  0
 69 53  1  0  0  0  0
 70 45  1  0  0  0  0
 71 46  1  0  0  0  0
 72 55  2  0  0  0  0
 73 55  1  0  0  0  0
 74 77  1  0  0  0  0
 75 64  1  0  0  0  0
 76 74  1  0  0  0  0
 77 80  1  0  0  0  0
 78 63  1  0  0  0  0
 79 63  1  0  0  0  0
 80 75  1  0  0  0  0
 81 74  1  0  0  0  0
 82 76  1  0  0  0  0
 83 72  1  0  0  0  0
 84 73  2  0  0  0  0
 85 83  2  0  0  0  0
  6 19  1  0  0  0  0
 85 84  1  0  0  0  0
  2 86  1  6  0  0  0
M  END
> <DATABASE_ID>
DB00781

> <DATABASE_NAME>
drugbank

> <SMILES>
[H][C@]1(NC(=O)[C@H](CCN)NC(=O)[C@H](CCN)NC(=O)[C@H](CC(C)C)NC(=O)[C@@H](CC2=CC=CC=C2)NC(=O)[C@@H](CCN)NC(=O)[C@H](CCNC1=O)NC(=O)[C@H](CCN)NC(=O)[C@@H](NC(=O)[C@H](CCN)NC(=O)CCCCC(C)CC)[C@@H](C)O)[C@@H](C)O

> <INCHI_IDENTIFIER>
InChI=1S/C56H98N16O13/c1-7-32(4)13-11-12-16-44(75)63-36(17-23-57)51(80)72-46(34(6)74)56(85)68-39(20-26-60)48(77)67-41-22-28-62-55(84)45(33(5)73)71-52(81)40(21-27-61)65-47(76)37(18-24-58)66-53(82)42(29-31(2)3)69-54(83)43(30-35-14-9-8-10-15-35)70-49(78)38(19-25-59)64-50(41)79/h8-10,14-15,31-34,36-43,45-46,73-74H,7,11-13,16-30,57-61H2,1-6H3,(H,62,84)(H,63,75)(H,64,79)(H,65,76)(H,66,82)(H,67,77)(H,68,85)(H,69,83)(H,70,78)(H,71,81)(H,72,80)/t32?,33-,34-,36+,37+,38-,39+,40+,41+,42+,43-,45+,46+/m1/s1

> <INCHI_KEY>
WQVJHHACXVLGBL-BPJDFBQWSA-N

> <FORMULA>
C56H98N16O13

> <MOLECULAR_WEIGHT>
1203.499

> <EXACT_MASS>
1202.74992728

> <JCHEM_ACCEPTOR_COUNT>
18

> <JCHEM_ATOM_COUNT>
183

> <JCHEM_AVERAGE_POLARIZABILITY>
127.40228236438216

> <JCHEM_BIOAVAILABILITY>
0

> <JCHEM_DONOR_COUNT>
18

> <JCHEM_FORMAL_CHARGE>
0

> <JCHEM_GHOSE_FILTER>
0

> <JCHEM_IUPAC>
N-[(1S)-3-amino-1-{[(1S,2R)-1-{[(1S)-3-amino-1-{[(3S,6S,9S,12S,15R,18R,21S)-6,9,18-tris(2-aminoethyl)-15-benzyl-3-[(1R)-1-hydroxyethyl]-12-(2-methylpropyl)-2,5,8,11,14,17,20-heptaoxo-1,4,7,10,13,16,19-heptaazacyclotricosan-21-yl]carbamoyl}propyl]carbamoyl}-2-hydroxypropyl]carbamoyl}propyl]-6-methyloctanamide

> <ALOGPS_LOGP>
-0.89

> <JCHEM_LOGP>
-7.2491706079999965

> <ALOGPS_LOGS>
-4.21

> <JCHEM_MDDR_LIKE_RULE>
0

> <JCHEM_NUMBER_OF_RINGS>
2

> <JCHEM_PHYSIOLOGICAL_CHARGE>
5

> <JCHEM_PKA>
12.036667759940395

> <JCHEM_PKA_STRONGEST_ACIDIC>
11.57313014624903

> <JCHEM_PKA_STRONGEST_BASIC>
10.230227871316952

> <JCHEM_POLAR_SURFACE_AREA>
490.65999999999985

> <JCHEM_REFRACTIVITY>
313.21549999999996

> <JCHEM_ROTATABLE_BOND_COUNT>
29

> <JCHEM_RULE_OF_FIVE>
0

> <ALOGPS_SOLUBILITY>
7.44e-02 g/l

> <JCHEM_TRADITIONAL_IUPAC>
N-[(1S)-3-amino-1-{[(1S,2R)-1-{[(1S)-3-amino-1-{[(3S,6S,9S,12S,15R,18R,21S)-6,9,18-tris(2-aminoethyl)-15-benzyl-3-[(1R)-1-hydroxyethyl]-12-(2-methylpropyl)-2,5,8,11,14,17,20-heptaoxo-1,4,7,10,13,16,19-heptaazacyclotricosan-21-yl]carbamoyl}propyl]carbamoyl}-2-hydroxypropyl]carbamoyl}propyl]-6-methyloctanamide

> <JCHEM_VEBER_RULE>
0

> <DRUGBANK_ID>
DB00781

> <SECONDARY_ACCESSION_NUMBERS>
APRD01190

> <DRUG_GROUPS>
approved; vet_approved

> <GENERIC_NAME>
Polymyxin B

> <SYNONYMS>
Polimixina B; Polymyxin B; Polymyxine B; Polymyxinum B

> <PRODUCTS>
10 Person ANSI; 25 Person ANSI; 4032 First Aid Kit; 4042 First Aid Kit; 4050 First Aid Kit; 4064 First Aid Kit; 4065 First Aid Kit; 4066 First Aid Kit; 4067 First Aid Kit; 4125 First Aid Kit; 4135 First Aid Kit; 4138 First Aid Kit; 4150 First Aid Kit; 4152 First Aid Kit; 4155 First Aid Kit; 4166 First Aid Kit; 4167 First Aid Kit; 4168 First Aid Kit; 4196 First Aid Kit; 4197 First Aid Kit; 4198 First Aid Kit; 4199 First Aid Kit; 4200 First Aid Kit; 4201 First Aid Kit; 4202 First Aid Kit; 4209 First Aid Kit; 4211 First Aid Kit; 4212 First Aid Kit; 4215 First Aid Kit; 4216 First Aid Kit; 4219 First Aid Kit; 4221 First Aid Kit; 4222 First Aid Kit; 4229 First Aid Kit; 4230 First Aid Kit; 4231First Aid Kit; 4232 First Aid Kit; 4234 First Aid Kit; 4235 First Aid Kit; 4239 First Aid Kit; 4240 First Aid Kit; 4241 First Aid Kit; 4242 First Aid Kit; 4245 First Aid Kit; 4248 First Aid Kit; 4249 First Aid Kit; 4250 First Aid Kit; 4252 First Aid Kit; 4253 First Aid Kit; 4254 First Aid Kit; 4255 First Aid Kit; 4271 First Aid Kit; 4272 First Aid Kit; 4274 First Aid Kit; 4276 First Aid Kit; 4277 First Aid Kit; 4279 First Aid Kit; 4280 First Aid Kit; 4281 First Aid Kit; 4282 First Aid Kit; 4283 First Aid Kit; 4284 First Aid Kit; 4287 First Aid Kit; 4289 First Aid Kit; 4291 First Aid Kit; 4292 First Aid Kit; 4293 First Aid Kit; 4295 First Aid Kit; 4299 First Aid Kit; 4303 First Aid Kit; 4304 First Aid Kit; 4305 First Aid Kit; 4314 First Aid Kit; 4315 First Aid Kit; 4317 First Aid Kit; 4318 First Aid Kit; 4319 First Aid Kit; 4329 First Aid Kit; 4334 First Aid Kit; 4336 First Aid Kit; 4338 First Aid Kit; 4339 First Aid Kit; 4346 First Aid Kit; 4355 First Aid Kit; 4356 First Aid Kit; 4357 First Aid Kit; 4358 First Aid Kit; 4361 First Aid Kit; 4362 First Aid Kit; 4363 First Aid Kit; 4364 First Aid Kit; 4365 First Aid Kit; 4367 First Aid Kit; 4379 First Aid Kit; 4380 First Aid Kit; 4381 First Aid Kit; 4382 First Aid Kit; 4383 First Aid Kit; 4384 First Aid Kit; 4387 First Aid Kit; 4388 First Aid Kit; 4389 First Aid Kit; 4393 First Aid Kit; 4398 First Aid Kit; 4399 First Aid Kit; 50 Person ANSI; 7 Select First Aid Triple Antibiotic; ACME FIRST AID Contains 404 PIECES; ACME Small Cuts and Burns; AK-Trol; ANCALIMA First Aid; ARC FIRST AID Contains 1000 PIECES; ARC FIRST AID Contains 303 PIECES; ARC FIRST AID Contains 303 PIECES HARDCASE; ARC FIRST AID Contains 404 PIECES; ARC FIRST AID Emergency Preparedness Contains 167 PIECES; AVON HeXashield Triple Antibiotic with Pain Relief; Acme Home/Office/Auto Kit; Adventure First Aid .5 Tin; Adventure Medical Kits 1-2 Person First Aid; Adventure Medical Kits 1-2 Person National Ski Patrol First Aid; Adventure Medical Kits 1-4 Person First Aid; Aerosoothe; Aerosporin Sterile Powder; Afassco Triple Antibiotic; Aftate Triple Antibiotic; Ak-poly-bac; American Red Cross First Aid Kit; Antibiotic; Antibiotic Application; Antibiotic Cold Sore Ointment; Antibiotic Cream; Antibiotic Cream Plus Pain Relief; Antibiotic Cream Plus Pain Relief for Kids; Antibiotic Cream for Kids; Antibiotic Drops; Antibiotic Ear (Neo/Polym/HC); Antibiotic Ear Drops; Antibiotic Eye Drops; Antibiotic Lozenges; Antibiotic Maximum Strength; Antibiotic Ointment; Antibiotic Ointment USP; Antibiotic Original Strength; Antibiotic Plus Pain Relief; Antibiotic Plus Pain Relief Cream; Antibiotic Plus Pain Relief Maximum Strength; Antibiotic and Pain Relief; Antibiotic and Pain Relief Maximum Strength; Antibiotic and pain relief maximum strength; Antibiotic plus Pain Relief; Antibiotic, Pain and Scar; Antibiotique Onguent; Atopalm First Aid Triple Antibiotic; Atopalm First Aid Triple Antibiotic Protection Moisturizing and Pain Relief; Atopalm First Aid Triple Antibiotic plus Pain Relief; BLUE ACME SLEEVE FIRST AID Contains 1000 PIECES; Bacimyxin Onguent; Bacitracin; Bacitracin Zinc; Bacitracin Zinc and Polymyxin B Sulfate; Bacitracin Zinc, Neomycin Sulfate and Polymyxin B Sulfate; Band-aid Brand Adhesive Bandages Plus Antibiotic; Band-aid-S-1; Basic Care First Aid Antibiotic; Basic Care First Aid Antibiotic Plus Pain Relief; Berkley and Jensen Triple Antibiotic; Bi-Mart Triple Antibiotic; Bi-Mart Triple Antibiotic plus Pain Relief; Bioderm Ointment; Biotic-Plus; Budpak Triple Antibiotic Maximum Strength; Bus and Classroom Yellow; CAREONE Antibiotic Plus Pain Relief; CAREONE Triple Antibiotic; CVP Triple Antibiotic; CVS All Purpose First Aid Kit; CVS Cuts and Scrapes Refill Pack; CVS First Aid Kit; CVS Health All Purpose Kit; CVS Health Healing on the Go Kit; CVS Health Medication and Topical Refill Pouch; CVS Health Sports Kit; CVS Health Triple Antibiotic; CVS Health Triple Antibiotic with Pain Relief; CVS Triple Antibiotic; Cardinal Health First Aid Antibiotic; Care Bus and Classroom Yellow; Care One Maximum Strength First Aid Antibiotic; CareALL Triple Antibiotic; CareALL Triple Antibiotic plus Pain Relief; Careone Original Strength Triple Antibiotic; Careone Triple Antibiotic; Casporyn HC; Childrens Double Antibiotic with Pain Relief; Circle K Triple Antibiotic; Complete Antibiotic Ointment; Cortisporin; Cortisporin Ophthalmic; Cortomycin; Crane Safety Triple Antibiotic; Cuadriderma; Curad Maximum Strength Triple Antibiotic; DAYMARK FAK-35 First Aid; DG Health Antibiotic; DG Health Poly Antibiotic; DG Health Triple Antibiotic; DG Poly Antibiotic First Aid Antibiotic; Dg Health Triple Antibiotic; Dioptrol Ointment; Dioptrol Suspension; Diosporin Ointment; Double Antibiotic; Double Antibiotic Plus Pain Relief Maximum Strength; Doubleantibioticointment; Dr Bells Pomade; EQUATE Triple Antibiotic; Easy Care First Aid; Easy Care First Aid - All Purpose; Easy Care First Aid Chest - Home and Workshop; Easy Care First Aid Kit - Outdoor and Travel; Easy Care First Aid Kit - Sports and Travel; Easy Care First Aid Triple Antibiotic; Ecolab Triple Antibiotic; Emergency Preparedness; Equaline Antibiotic Plus Pain Relief; Equaline Antibiotic Plus Pain Relief for Kids; Equaline First Aid Antibiotic; Equaline Triple Antibiotic; Equaline Triple Antibiotic Plus; Equate Antibiotic Plus Pain Relief; Equate First Aid Antibiotic; Equate First Aid Antibiotic Pain Relieving; Equate First Aid Antibiotic Plus Pain Relief; Eurosporin; Exchange Select First Aid Triple Anitbiotic Pain Relieving; Exchange Select triple antibiotic; FAK Care4 Bus and School Yellow ORM D; FAK Large Office First Aid kit; FIRST AID Contains 1000 PIECES; FIRST AID Contains 303 PIECES; FIRST AID Contains 303 PIECES HARDCASE; FIRST AID Contains 404 PIECES; Face Values Triple Antibiotic; Family Care Antibiotic; Family Care Triple Antibiotic; Family Care Triple Antibiotic Plus Pain Relief; Family Wellness; Family Wellness Antiseptic and Pain Relief; Family Wellness First Aid Antibiotic; Family Wellness Original; Family Wellness Pain Scar Itch; Family Wellness Plus Pain Relief; Family Wellness Triple Antibiotic Plus Pain Relief; Family wellness; First Aid Antibiotic; First Aid Antibiotic Ointment; First Aid Antibiotic Plus Pain Relief Maximum Strength; First Aid Only Triple Antibiotic; First Aid Pocket Pack - 40 Pieces; First Aid Triple Antibiotic; First Aid Triple Antibiotic Pain and Scar; First Aid Triple Antibiotic and Pain Relief Maximum Strength; First Aid Triple Antibiotic with Pain Reliever; First Aid Value Pack - 77 Pieces; Fonow; Formucare Triple Antibiotic Original Strength; Fulton Street Market Triple Antibiotic Original Strength; GENUINE FIRST AID Emergency Preparedness Contains 167 PIECES HARDCASE; GENUINE FIRST AID Emergency Preparedness Contains 167 Pieces; GFA First Aid; GFA First Aid 16 Unit Metal Case; GFA First Aid 24 Unit Metal Case; GFA First Aid 36 Unit Metal Case; GFA First Aid 75 Person Metal Case; GFA First Aid Kit Essentials - 33 Pieces; GLINT TRIPLE ANTIBIOTIC First Aid; Genuine First Aid - Auto First Aid; Genuine First Aid - Home First Aid; Genuine First Aid Industrial First Aid; Genuine Triple Antibiotic; Gercillin; Good Neighbor Pharmacy Antibiotic and Pain Relief; Good Neighbor Pharmacy Emergency Preparedness and First Aid Contains 167 Pieces; Good Neighbor Pharmacy First Aid; Good Neighbor Pharmacy Triple Antibiotic; Good Neighbor Pharmacy Triple Antibiotic Plus Pain Relief; Good Sense First Aid Antibiotic; Good Sense Triple Antibiotic; Good Sense Triple Antibiotic and Pain Relief; GoodSense Antibiotic plus Pain Relief; Goodsense First Aid Antibiotic; Green Guard Triple Antibiotic; H E Buddy Antibiotic Maximum Strength Plus Pain Relief; Harris Teeter Poly Antibiotic; Harris Teeter Triple Antibioitic; Harris Teeter Triple Antibiotic Plus Pain Relief; Healthy Accents Triple Antibiotic; Healthy Accents triple antibiotic; Jampolycin; K-Mart SmartSense First Aid Contains 303 Pieces; Kaiser Permanente Double antibiotic; Kit Breakroom Office First Aid; Kit Large Office First Aid; LEADER Triple Antibiotic; Lanabiotic Ont; Large ANSI First Aid Kit; Laryngets Loz; Leader First Aid Antibiotic; Leader Triple Antibiotic; Leader Triple Antibiotic Plus; Leader Triple Antibiotic and Pain Relief; Lidomyxin; Lidosporin Cream; Lidosporin Ear Drops; Lincoln; Live Better Triple Antibiotic; Live Better Triple Antibiotic plus Pain Relief; LiveBetter Antibiotic Plus Pain Relief; Lucky SuperSoft First Aid; MAKESENSE First Aid; Major Triple Antibiotic; Market Basket First Aid Triple Antibiotic; Maxitrol; Medi-First; Medi-First Plus Triple Antibiotic; Medi-First Triple Antibiotic; MediChoice Triple Antibiotic; Medpride First Aid; Meijer Antibiotic Plus Pain Relief; Meijer Triple Antibiotic Plus; Methedex; Mountain Series Weekender Medical; Multi Antibiotic with Pain Relief Maximum Strength; NATUREPLEX ANTIBIOTIC plus PAIN RELIEF; NEOMYCIN and POLYMYXIN B SULFATES and HYDROCORTISONE; NEOSPORIN Plus BURN RELIEF; Neo Bace Ophthalmic Ointment; Neo Polycin; Neo Polycin HC; Neo-poly-bac; Neo-poly-bac Hydro; Neo-poly-dex; Neo-polycin; Neo-polycin HC; Neocidin; Neomycin Polymyxin B Sulfates and Dexamethasone; Neomycin Sulfate, Polymyxin B Sulfate and Bacitracin Zinc; Neomycin Sulfate, Polymyxin B Sulfate and Dexamethasone; Neomycin and Polymyxin B Sulfates; Neomycin and Polymyxin B Sulfates and Bacitracin Zinc; Neomycin and Polymyxin B Sulfates and Bacitracin Zinc with Hydrocortisone Acetate; Neomycin and Polymyxin B Sulfates and Dexamethasone; Neomycin and Polymyxin B Sulfates and Gramicidin; Neomycin and Polymyxin B Sulfates and Hydrocortisone; Neomycin and Polymyxin B Sulfates and Hydrocortisone Otic Suspension; Neomycin and Polymyxin B Sulfates, Bacitracin Zinc and Hydrocortisone; Neomycin and Polymyxin B Sulfates, Bacitracin Zinc, and Hydrocortisone; Neomycin and Polymyxin B Sulfates, and Bacitracin Zinc; Neomycin and Polymyxin B sulfates, Bacitracin zinc; Neomycin and polymyxin B sulfates and bacitracin zinc; Neomycin, Polymyxin B Sulfates and Hydrocortisone; Neosporin; Neosporin Antibiotic Cream; Neosporin Eye-ear Solution; Neosporin G.U.; Neosporin Irrigating Solution; Neosporin Kids Plus Pain Relief; Neosporin Ointment; Neosporin Ophthalmic Ointment; Neosporin Original; Neosporin Pain Itch Scar; Neosporin Plus Pain Relief; Neosporin Plus Pain Relief First Aid Antibiotic Pain Relieving For Kids; Neosporin Plus Pain Relief First Aid Antibiotic/Pain Relieving; Neosporin Plus Pain Relief Neo To Go First Aid Antibiotic Pain Relieving; Neosporin Plus Pain Relief Neo to Go; Neotopic Ointment; North Triple Antibiotic; Npd; OLP Triple Antibiotic; OLP Triple Antibiotic Plus; Odan-spor; Odan-spor-HC; Odan-trol; Omnisporin; Onguent Antibiotique; Ophthocort Ont; Optimyxin; Optimyxin Ophthalmic Ointment; Optimyxin Plus; Ori-power; Original Antibiotic Cream; Our Family Triple Antibiotic; Ozonol Antibiotic Plus - Ointment; Ozonol Antibiotic Plus Ont; Ozonol Antibiotics Plus; PMS-polytrimethoprim; POLYMYXIN B SULFATE and TRIMETHOPRIM SULFATE; Paraid Triple Antibiotic; Pediotic; Penimixcina; Pentrexcilina Triple Antibiotic; Pentrexcilina Triple Antibiotic Plus Pain Relief; Polvos de Sulpha First Aid Antibiotic; Poly Antibiotic; Poly Bacitracin; Poly-pred; Polycidin Eye, Ear Drops; Polycidin Ophthalmic Ointment; Polycin; Polyderm Antibiotic Ointment; Polyderm Ointment USP; Polymyxin B; Polymyxin B Sulfate and Trimethoprim; Polymyxin B Sulfate and Trimethoprim Sulfate; Polymyxin B for Injection USP; Polysporin; Polysporin Antibiotic Burn Cream; Polysporin Antibiotic Cream; Polysporin Antibiotic Ointment; Polysporin Burn Formula Cream; Polysporin Cold Sore Ointment; Polysporin Complete; Polysporin Cream; Polysporin Eye and Ear Drops Sterile; Polysporin First Aid Antibiotic; Polysporin Plus Pain Relief; Polysporin Plus Pain Relief Ear Drops; Polysporin Singles; Polysporin Sterile Ophthalmic Ointment; Polysporin Topical First Aid Antibiotic Ointment; Polysporin Triple Antibiotic Ointment; Polysporin for Kids; Polysporin for Stitches; Polytopic; Polytopic Cream; Polytopic Ont; Polytrim; Polytrim Ophthalmic Solution; Pomada De La Campana Triple Antibiotic Pain Relief; Premier Value Antibiotic Plus Pain Relief; Premier Value Max Strength Antibiotic plus pain relief; Premier Value Triple Antibiotic; Premier Value Triple Antibiotic Plus; ProCoMycin; Procure Triple Antibiotic Cream plus Active Manuka Honey; ProcureTriple Antibiotic Triple Antibiotic; Publix antibiotic; Publix antibiotic plus Pain Relief; Publix antibiotic plus pain relief; Pulmosirum Pastille; Quality Choice Maximum Strength Triple Antibiotic; Quality Choice Triple Antibiotic; Quality Choice Triple Antibiotic Plus Pain Reliever; ReCellTis; ReCellTis Wound Cream; Ready America First Aid Outdoor- 107 Pieces; Ready America First Aid Pocket - 33 Pieces; Redicare Triple Antibiotic First Aid; Refill 2; Repara Triple Antibiotic; Safeway Antibiotic Plus Pain Relief; Sandoz Cortimyxin; Sandoz Polytrimethoprim; Schein Triple Antibiotic; Select Medical Products Triple Antibiotic; Sheffield Triple Antibiotic; Sheffield Triple Antibiotic Plus Pain Relief; ShopRite Triple Antibiotic; Shopko Antibiotic Plus Pain Relief; Shopko Triple Antibiotic; Shopko Triple Antibiotic Plus; Shopko Triple Antibiotic plus Pain Relief; Shoprite Triple Antibiotic; Signature Care First Aid Antibiotic; Signature Care Triple Antibiotic; Simply Neosporin First Aid Antibiotic; Small Cuts and Burns; Smart Sense Antibiotic Maximum Strength; Smart Sense Triple Antibiotic; Smart Sense antibiotic plus pain relief; Smart Sense triple antibitotic plus pain relief; Standard ANSI First Aid; Statrol; Sterisporin; Sunmark Antibiotic Plus Pain Relief; Sunmark Double Antibiotic; Sunmark Triple Antibiotic; Sunmark Triple Antibiotic Plus Pain Relief; Sx1 Medicated Post-Operative System; Synalar Bi-otic Solution; Terramycin; The New Parent First Aid; TheraPlusPlus Plus; TopCare Antibiotic Plus Pain Relief; TopCare Triple Antibiotic Plus Pain Relief; Topcare Antibiotic; Topcare Triple Antibiotic; Topical Antibiotic Ointment; Travel Savvy First Aid Triple Antibiotic; Travel Savvy Triple Antibiotic; Triastem Topical Antibiotic; Tribiotic; Tribioticlc Lc Lc; Trimethoprim sulfate and Polymyxin B sulfate; Triple Antibiotic; Triple Antibiotic CVS; Triple Antibiotic Extra Strength; Triple Antibiotic First Aid; Triple Antibiotic First Aid Antibiotic; Triple Antibiotic GRX; Triple Antibiotic HC; Triple Antibiotic Maximum Strength; Triple Antibiotic Ointment; Triple Antibiotic Plus; Triple Antibiotic Plus Maximum Strength; Triple Antibiotic Plus Pain Relief; Triple Antibiotic Plus Pain Relief Maximum Strength; Triple Antibiotic and Pain Relief Maximum Strength; Triple Antibiotic plus Pain Relief Maximum Strength; Triple Antibiotic plus pain relief; Triple Antibiotic with Pain Relief; Triple Antibiotic with Pain Relief Maximum Strength; Triple Antiobiotic; Tripleantibioticapainscaritch; Tripleantibioticointmentandpainrelief; UEC Medical First Aid Antibiotic; ULTRA SEAL Triple Antibiotic; Up and Up Antibiotic; Up and Up Antibiotic Plus Pain Relief; Up and Up First Aid Antibiotic Pain Relieving; Up and Up multi action antibiotic; WELL AT WALG TRIPLE ANTIBIOTIC Well at Walgreens; Wal-Sporin; Walgreens Maximum Strength Triple Antibiotic With Pain Relief; Walgreens Triple Antibiotic; Walgreens Wal-Sporin First Aid Antibiotic; WalgreensTriple Antibiotic; Water-Jel 3-in-1 Antibiotic; Welly Adventure First Aid Kit; Welly Bravery First Aid Kit; Welly Bravery Triple Antibiotic; Welly Bravery Triple Antibiotic with Pain Relief; Welly Human Repair Kit; Welly Quick Fix Kit; Welly Superhero Supplies Kit; Western Family Antibiotic Plus Pain Relief; Western Family Triple Antibiotic; Western Family Triple Antibiotic plus Pain Relief; WinCo Maximum Strength Triple Antibiotic; WinCo Original Strength Triple Antibiotic; meijer Antibiotic Plus Pain Relief; meijer Triple Antibiotic; meijer Triple Antibiotic plus Pain Relief

> <INTERNATIONAL_BRANDS>
Aerosporin; Metamyxin; Polomyxin B; Poly-Rx; Polyfax; Polyxx

> <SALTS>
Polymyxin B sulfate

$$$$
