152946
  -OEChem-10051719103D

 53 57  0     1  0  0  0  0  0999 V2000
   -1.4919    2.8370   -0.0982 F   0  0  0  0  0  0  0  0  0  0  0  0
   -0.4618   -1.7666   -0.3616 O   0  0  0  0  0  0  0  0  0  0  0  0
    3.5304    2.7033    0.2066 O   0  0  0  0  0  0  0  0  0  0  0  0
    5.8572    1.7382    0.9252 O   0  0  0  0  0  0  0  0  0  0  0  0
    6.4486   -0.0925   -0.3112 O   0  0  0  0  0  0  0  0  0  0  0  0
   -2.3018    0.2264   -0.3360 N   0  0  3  0  0  0  0  0  0  0  0  0
   -5.4691   -1.3038    0.7445 N   0  0  0  0  0  0  0  0  0  0  0  0
    2.3781   -1.1918   -0.1415 N   0  0  0  0  0  0  0  0  0  0  0  0
   -4.5880    0.3686   -0.9370 C   0  0  2  0  0  0  0  0  0  0  0  0
   -4.3552   -0.9016   -0.1101 C   0  0  1  0  0  0  0  0  0  0  0  0
   -3.1685    0.7134   -1.4124 C   0  0  0  0  0  0  0  0  0  0  0  0
   -3.0288   -0.6205    0.6124 C   0  0  0  0  0  0  0  0  0  0  0  0
   -5.2013    1.5031   -0.1061 C   0  0  0  0  0  0  0  0  0  0  0  0
    2.0949   -2.6411   -0.2625 C   0  0  0  0  0  0  0  0  0  0  0  0
   -6.4000    0.9965    0.6865 C   0  0  0  0  0  0  0  0  0  0  0  0
    2.6185   -3.6064    0.7464 C   0  0  0  0  0  0  0  0  0  0  0  0
    1.1484   -3.3140    0.6734 C   0  0  0  0  0  0  0  0  0  0  0  0
   -6.0123   -0.2047    1.5447 C   0  0  0  0  0  0  0  0  0  0  0  0
   -0.9604    0.5275   -0.2295 C   0  0  0  0  0  0  0  0  0  0  0  0
    1.3688   -0.1870   -0.1335 C   0  0  0  0  0  0  0  0  0  0  0  0
    0.0010   -0.4869   -0.2413 C   0  0  0  0  0  0  0  0  0  0  0  0
    1.7394    1.1699   -0.0134 C   0  0  0  0  0  0  0  0  0  0  0  0
   -0.5743    1.8594   -0.1100 C   0  0  0  0  0  0  0  0  0  0  0  0
    3.7056   -0.8260   -0.0317 C   0  0  0  0  0  0  0  0  0  0  0  0
    0.7751    2.1854   -0.0017 C   0  0  0  0  0  0  0  0  0  0  0  0
    4.1633    0.4265    0.0865 C   0  0  0  0  0  0  0  0  0  0  0  0
    3.1757    1.5356    0.1029 C   0  0  0  0  0  0  0  0  0  0  0  0
    5.6086    0.6325    0.1919 C   0  0  0  0  0  0  0  0  0  0  0  0
   -0.6002   -2.2802   -1.6832 C   0  0  0  0  0  0  0  0  0  0  0  0
   -5.2454    0.1655   -1.7912 H   0  0  0  0  0  0  0  0  0  0  0  0
   -4.1776   -1.7279   -0.8128 H   0  0  0  0  0  0  0  0  0  0  0  0
   -2.9344    0.1713   -2.3358 H   0  0  0  0  0  0  0  0  0  0  0  0
   -3.0558    1.7851   -1.6040 H   0  0  0  0  0  0  0  0  0  0  0  0
   -3.1675   -0.0655    1.5464 H   0  0  0  0  0  0  0  0  0  0  0  0
   -2.5225   -1.5595    0.8533 H   0  0  0  0  0  0  0  0  0  0  0  0
   -5.5077    2.3230   -0.7660 H   0  0  0  0  0  0  0  0  0  0  0  0
   -4.4628    1.9225    0.5889 H   0  0  0  0  0  0  0  0  0  0  0  0
    2.1223   -2.9754   -1.2946 H   0  0  0  0  0  0  0  0  0  0  0  0
   -6.7859    1.7986    1.3256 H   0  0  0  0  0  0  0  0  0  0  0  0
   -7.2076    0.7177   -0.0019 H   0  0  0  0  0  0  0  0  0  0  0  0
   -5.1743   -2.0595    1.3620 H   0  0  0  0  0  0  0  0  0  0  0  0
    3.1551   -3.2347    1.6108 H   0  0  0  0  0  0  0  0  0  0  0  0
    2.9589   -4.5722    0.3931 H   0  0  0  0  0  0  0  0  0  0  0  0
    0.5255   -4.1241    0.3123 H   0  0  0  0  0  0  0  0  0  0  0  0
    0.7475   -2.7932    1.5362 H   0  0  0  0  0  0  0  0  0  0  0  0
   -5.2980    0.0974    2.3189 H   0  0  0  0  0  0  0  0  0  0  0  0
   -6.9036   -0.5675    2.0686 H   0  0  0  0  0  0  0  0  0  0  0  0
    4.3899   -1.6690   -0.0569 H   0  0  0  0  0  0  0  0  0  0  0  0
    1.0558    3.2308    0.0905 H   0  0  0  0  0  0  0  0  0  0  0  0
    0.2210   -1.9660   -2.3358 H   0  0  0  0  0  0  0  0  0  0  0  0
   -1.5472   -1.9408   -2.1130 H   0  0  0  0  0  0  0  0  0  0  0  0
   -0.6250   -3.3724   -1.6415 H   0  0  0  0  0  0  0  0  0  0  0  0
    6.8185    1.9102    1.0186 H   0  0  0  0  0  0  0  0  0  0  0  0
  1 23  1  0  0  0  0
  2 21  1  0  0  0  0
  2 29  1  0  0  0  0
  3 27  2  0  0  0  0
  4 28  1  0  0  0  0
  4 53  1  0  0  0  0
  5 28  2  0  0  0  0
  6 11  1  0  0  0  0
  6 12  1  0  0  0  0
  6 19  1  0  0  0  0
  7 10  1  0  0  0  0
  7 18  1  0  0  0  0
  7 41  1  0  0  0  0
  8 14  1  0  0  0  0
  8 20  1  0  0  0  0
  8 24  1  0  0  0  0
  9 10  1  0  0  0  0
  9 11  1  0  0  0  0
  9 13  1  0  0  0  0
  9 30  1  0  0  0  0
 10 12  1  0  0  0  0
 10 31  1  0  0  0  0
 11 32  1  0  0  0  0
 11 33  1  0  0  0  0
 12 34  1  0  0  0  0
 12 35  1  0  0  0  0
 13 15  1  0  0  0  0
 13 36  1  0  0  0  0
 13 37  1  0  0  0  0
 14 16  1  0  0  0  0
 14 17  1  0  0  0  0
 14 38  1  0  0  0  0
 15 18  1  0  0  0  0
 15 39  1  0  0  0  0
 15 40  1  0  0  0  0
 16 17  1  0  0  0  0
 16 42  1  0  0  0  0
 16 43  1  0  0  0  0
 17 44  1  0  0  0  0
 17 45  1  0  0  0  0
 18 46  1  0  0  0  0
 18 47  1  0  0  0  0
 19 21  1  0  0  0  0
 19 23  2  0  0  0  0
 20 21  2  0  0  0  0
 20 22  1  0  0  0  0
 22 25  2  0  0  0  0
 22 27  1  0  0  0  0
 23 25  1  0  0  0  0
 24 26  2  0  0  0  0
 24 48  1  0  0  0  0
 25 49  1  0  0  0  0
 26 27  1  0  0  0  0
 26 28  1  0  0  0  0
 29 50  1  0  0  0  0
 29 51  1  0  0  0  0
 29 52  1  0  0  0  0
M  END
> <DATABASE_ID>
DB00218

> <DATABASE_NAME>
drugbank

> <ORIGINAL_SOURCE>
PUBCHEM

> <ORIGINAL_SOURCE_URL>
https://pubchem.ncbi.nlm.nih.gov/rest/pug/compound/inchikey/FABPRXSRWADJSP-MEDUHNTESA-N/SDF?record_type=3d

> <SMILES>
[H][C@]12CN(C[C@@]1([H])NCCC2)C1=C(F)C=C2C(=O)C(=CN(C3CC3)C2=C1OC)C(O)=O

> <INCHI_IDENTIFIER>
InChI=1S/C21H24FN3O4/c1-29-20-17-13(19(26)14(21(27)28)9-25(17)12-4-5-12)7-15(22)18(20)24-8-11-3-2-6-23-16(11)10-24/h7,9,11-12,16,23H,2-6,8,10H2,1H3,(H,27,28)/t11-,16+/m0/s1

> <INCHI_KEY>
FABPRXSRWADJSP-MEDUHNTESA-N

> <FORMULA>
C21H24FN3O4

> <MOLECULAR_WEIGHT>
401.4314

> <EXACT_MASS>
401.175084476

> <JCHEM_ACCEPTOR_COUNT>
7

> <JCHEM_AVERAGE_POLARIZABILITY>
41.24465784304949

> <JCHEM_BIOAVAILABILITY>
1

> <JCHEM_DONOR_COUNT>
2

> <JCHEM_FORMAL_CHARGE>
0

> <JCHEM_GHOSE_FILTER>
0

> <JCHEM_IUPAC>
7-[(4aS,7aS)-octahydro-1H-pyrrolo[3,4-b]pyridin-6-yl]-1-cyclopropyl-6-fluoro-8-methoxy-4-oxo-1,4-dihydroquinoline-3-carboxylic acid

> <ALOGPS_LOGP>
0.01

> <JCHEM_LOGP>
-0.4989749388152805

> <ALOGPS_LOGS>
-3.38

> <JCHEM_MDDR_LIKE_RULE>
0

> <JCHEM_NUMBER_OF_RINGS>
5

> <JCHEM_PHYSIOLOGICAL_CHARGE>
0

> <JCHEM_PKA_STRONGEST_ACIDIC>
5.6861297847146455

> <JCHEM_PKA_STRONGEST_BASIC>
9.423932936543999

> <JCHEM_POLAR_SURFACE_AREA>
82.11

> <JCHEM_REFRACTIVITY>
106.22399999999999

> <JCHEM_ROTATABLE_BOND_COUNT>
4

> <JCHEM_RULE_OF_FIVE>
1

> <ALOGPS_SOLUBILITY>
1.68e-01 g/l

> <JCHEM_TRADITIONAL_IUPAC>
moxifloxacin

> <JCHEM_VEBER_RULE>
0

$$$$
