441397
  -OEChem-10051719383D

 59 61  0     1  0  0  0  0  0999 V2000
    1.5499    0.9036   -1.3263 S   0  0  0  0  0  0  0  0  0  0  0  0
   -0.3078    1.2354    2.6550 O   0  0  0  0  0  0  0  0  0  0  0  0
   -3.2653    0.5782   -0.4681 O   0  0  0  0  0  0  0  0  0  0  0  0
   -2.5402    2.7721   -0.5282 O   0  0  0  0  0  0  0  0  0  0  0  0
    4.4932    1.9503    0.5207 O   0  0  0  0  0  0  0  0  0  0  0  0
   -5.5177   -0.1757   -0.5563 O   0  0  0  0  0  0  0  0  0  0  0  0
   -6.3616   -1.9962    0.3555 O   0  0  0  0  0  0  0  0  0  0  0  0
   -4.7899   -0.7977    1.5408 O   0  0  0  0  0  0  0  0  0  0  0  0
   -0.1402    1.8697    0.3879 N   0  0  0  0  0  0  0  0  0  0  0  0
    2.6725    0.9305    1.5312 N   0  0  0  0  0  0  0  0  0  0  0  0
    6.1700    0.1140    1.7240 N   0  0  0  0  0  0  0  0  0  0  0  0
    1.1887    2.2282   -0.1165 C   0  0  1  0  0  0  0  0  0  0  0  0
   -0.2587    0.7343   -1.7389 C   0  0  0  0  0  0  0  0  0  0  0  0
   -0.9643    0.9625   -0.3849 C   0  0  2  0  0  0  0  0  0  0  0  0
    1.7145    2.0231    1.3108 C   0  0  1  0  0  0  0  0  0  0  0  0
    0.2603    1.6647    1.6765 C   0  0  0  0  0  0  0  0  0  0  0  0
   -0.5173   -0.6761   -2.2719 C   0  0  0  0  0  0  0  0  0  0  0  0
   -0.5964    1.7737   -2.8164 C   0  0  0  0  0  0  0  0  0  0  0  0
   -2.3289    1.5686   -0.4691 C   0  0  0  0  0  0  0  0  0  0  0  0
    4.0032    0.9884    1.1100 C   0  0  0  0  0  0  0  0  0  0  0  0
    4.7871   -0.2779    1.4366 C   0  0  1  0  0  0  0  0  0  0  0  0
   -4.6484    0.9765   -0.5438 C   0  0  2  0  0  0  0  0  0  0  0  0
    4.6945   -1.2780    0.3028 C   0  0  0  0  0  0  0  0  0  0  0  0
   -4.8780    1.7233   -1.8502 C   0  0  0  0  0  0  0  0  0  0  0  0
    3.6668   -2.2042    0.3028 C   0  0  0  0  0  0  0  0  0  0  0  0
    5.6399   -1.2425   -0.7065 C   0  0  0  0  0  0  0  0  0  0  0  0
    3.5817   -3.1254   -0.7413 C   0  0  0  0  0  0  0  0  0  0  0  0
    5.5548   -2.1636   -1.7505 C   0  0  0  0  0  0  0  0  0  0  0  0
   -5.4846   -0.9718    0.5488 C   0  0  0  0  0  0  0  0  0  0  0  0
    4.5257   -3.1051   -1.7677 C   0  0  0  0  0  0  0  0  0  0  0  0
   -6.4567   -2.9388    1.4285 C   0  0  0  0  0  0  0  0  0  0  0  0
   -5.4468   -4.0441    1.2048 C   0  0  0  0  0  0  0  0  0  0  0  0
    1.2348    3.2508   -0.5020 H   0  0  0  0  0  0  0  0  0  0  0  0
   -1.0278    0.0301    0.1931 H   0  0  0  0  0  0  0  0  0  0  0  0
    2.0455    2.9472    1.7998 H   0  0  0  0  0  0  0  0  0  0  0  0
   -1.5813   -0.8156   -2.4951 H   0  0  0  0  0  0  0  0  0  0  0  0
   -0.2329   -1.4458   -1.5449 H   0  0  0  0  0  0  0  0  0  0  0  0
    0.0388   -0.8669   -3.1971 H   0  0  0  0  0  0  0  0  0  0  0  0
   -1.6441    1.6892   -3.1273 H   0  0  0  0  0  0  0  0  0  0  0  0
    0.0126    1.6292   -3.7169 H   0  0  0  0  0  0  0  0  0  0  0  0
   -0.4394    2.8009   -2.4691 H   0  0  0  0  0  0  0  0  0  0  0  0
    2.3628    0.0866    2.0076 H   0  0  0  0  0  0  0  0  0  0  0  0
    4.3862   -0.7281    2.3535 H   0  0  0  0  0  0  0  0  0  0  0  0
   -4.9088    1.6066    0.3156 H   0  0  0  0  0  0  0  0  0  0  0  0
    6.1838    0.7545    2.5173 H   0  0  0  0  0  0  0  0  0  0  0  0
    6.7008   -0.7050    2.0198 H   0  0  0  0  0  0  0  0  0  0  0  0
   -4.4306    2.7188   -1.8698 H   0  0  0  0  0  0  0  0  0  0  0  0
   -4.4640    1.1591   -2.6940 H   0  0  0  0  0  0  0  0  0  0  0  0
   -5.9510    1.8428   -2.0376 H   0  0  0  0  0  0  0  0  0  0  0  0
    2.9264   -2.2279    1.0968 H   0  0  0  0  0  0  0  0  0  0  0  0
    6.4414   -0.5107   -0.7317 H   0  0  0  0  0  0  0  0  0  0  0  0
    2.7796   -3.8576   -0.7554 H   0  0  0  0  0  0  0  0  0  0  0  0
    6.2870   -2.1452   -2.5526 H   0  0  0  0  0  0  0  0  0  0  0  0
    4.4586   -3.8214   -2.5814 H   0  0  0  0  0  0  0  0  0  0  0  0
   -7.4702   -3.3523    1.4068 H   0  0  0  0  0  0  0  0  0  0  0  0
   -6.3234   -2.4610    2.4057 H   0  0  0  0  0  0  0  0  0  0  0  0
   -5.5333   -4.8115    1.9792 H   0  0  0  0  0  0  0  0  0  0  0  0
   -5.5968   -4.5126    0.2265 H   0  0  0  0  0  0  0  0  0  0  0  0
   -4.4251   -3.6509    1.2159 H   0  0  0  0  0  0  0  0  0  0  0  0
  1 12  1  0  0  0  0
  1 13  1  0  0  0  0
  2 16  2  0  0  0  0
  3 19  1  0  0  0  0
  3 22  1  0  0  0  0
  4 19  2  0  0  0  0
  5 20  2  0  0  0  0
  6 22  1  0  0  0  0
  6 29  1  0  0  0  0
  7 29  1  0  0  0  0
  7 31  1  0  0  0  0
  8 29  2  0  0  0  0
  9 12  1  0  0  0  0
  9 14  1  0  0  0  0
  9 16  1  0  0  0  0
 10 15  1  0  0  0  0
 10 20  1  0  0  0  0
 10 42  1  0  0  0  0
 11 21  1  0  0  0  0
 11 45  1  0  0  0  0
 11 46  1  0  0  0  0
 12 15  1  0  0  0  0
 12 33  1  0  0  0  0
 13 14  1  0  0  0  0
 13 17  1  0  0  0  0
 13 18  1  0  0  0  0
 14 19  1  0  0  0  0
 14 34  1  0  0  0  0
 15 16  1  0  0  0  0
 15 35  1  0  0  0  0
 17 36  1  0  0  0  0
 17 37  1  0  0  0  0
 17 38  1  0  0  0  0
 18 39  1  0  0  0  0
 18 40  1  0  0  0  0
 18 41  1  0  0  0  0
 20 21  1  0  0  0  0
 21 23  1  0  0  0  0
 21 43  1  0  0  0  0
 22 24  1  0  0  0  0
 22 44  1  0  0  0  0
 23 25  2  0  0  0  0
 23 26  1  0  0  0  0
 24 47  1  0  0  0  0
 24 48  1  0  0  0  0
 24 49  1  0  0  0  0
 25 27  1  0  0  0  0
 25 50  1  0  0  0  0
 26 28  2  0  0  0  0
 26 51  1  0  0  0  0
 27 30  2  0  0  0  0
 27 52  1  0  0  0  0
 28 30  1  0  0  0  0
 28 53  1  0  0  0  0
 30 54  1  0  0  0  0
 31 32  1  0  0  0  0
 31 55  1  0  0  0  0
 31 56  1  0  0  0  0
 32 57  1  0  0  0  0
 32 58  1  0  0  0  0
 32 59  1  0  0  0  0
M  END
> <DATABASE_ID>
DB01602

> <DATABASE_NAME>
drugbank

> <ORIGINAL_SOURCE>
PUBCHEM

> <ORIGINAL_SOURCE_URL>
https://pubchem.ncbi.nlm.nih.gov/rest/pug/compound/inchikey/PFOLLRNADZZWEX-FFGRCDKISA-N/SDF?record_type=3d

> <SMILES>
[H][C@]12SC(C)(C)[C@@H](N1C(=O)[C@H]2NC(=O)[C@H](N)C1=CC=CC=C1)C(=O)OC(C)OC(=O)OCC

> <INCHI_IDENTIFIER>
InChI=1S/C21H27N3O7S/c1-5-29-20(28)31-11(2)30-19(27)15-21(3,4)32-18-14(17(26)24(15)18)23-16(25)13(22)12-9-7-6-8-10-12/h6-11,13-15,18H,5,22H2,1-4H3,(H,23,25)/t11?,13-,14-,15+,18-/m1/s1

> <INCHI_KEY>
PFOLLRNADZZWEX-FFGRCDKISA-N

> <FORMULA>
C21H27N3O7S

> <MOLECULAR_WEIGHT>
465.52

> <EXACT_MASS>
465.156970923

> <JCHEM_ACCEPTOR_COUNT>
6

> <JCHEM_AVERAGE_POLARIZABILITY>
46.804522691634816

> <JCHEM_BIOAVAILABILITY>
1

> <JCHEM_DONOR_COUNT>
2

> <JCHEM_FORMAL_CHARGE>
0

> <JCHEM_GHOSE_FILTER>
1

> <JCHEM_IUPAC>
1-[(ethoxycarbonyl)oxy]ethyl (2S,5R,6R)-6-[(2R)-2-amino-2-phenylacetamido]-3,3-dimethyl-7-oxo-4-thia-1-azabicyclo[3.2.0]heptane-2-carboxylate

> <ALOGPS_LOGP>
1.17

> <JCHEM_LOGP>
1.471288066666666

> <ALOGPS_LOGS>
-3.58

> <JCHEM_MDDR_LIKE_RULE>
1

> <JCHEM_NUMBER_OF_RINGS>
3

> <JCHEM_PHYSIOLOGICAL_CHARGE>
1

> <JCHEM_PKA>
14.348872411368657

> <JCHEM_PKA_STRONGEST_ACIDIC>
11.72011839374805

> <JCHEM_PKA_STRONGEST_BASIC>
7.438310344205282

> <JCHEM_POLAR_SURFACE_AREA>
137.26

> <JCHEM_REFRACTIVITY>
113.76040000000003

> <JCHEM_ROTATABLE_BOND_COUNT>
10

> <JCHEM_RULE_OF_FIVE>
1

> <ALOGPS_SOLUBILITY>
1.23e-01 g/l

> <JCHEM_TRADITIONAL_IUPAC>
bacampicillin

> <JCHEM_VEBER_RULE>
0

$$$$
