
  Mrv1909 11041923332D          

 40 44  0  0  0  0            999 V2000
   -3.5106   -0.2061    0.0000 C   0  0  0  0  0  0  0  0  0  0  0  0
   -3.5106    0.6187    0.0000 C   0  0  0  0  0  0  0  0  0  0  0  0
   -0.6529   -0.2061    0.0000 C   0  0  1  0  0  0  0  0  0  0  0  0
   -0.6529    0.6187    0.0000 C   0  0  2  0  0  0  0  0  0  0  0  0
   -1.3673   -0.6187    0.0000 C   0  0  0  0  0  0  0  0  0  0  0  0
   -1.3673    1.0312    0.0000 C   0  0  0  0  0  0  0  0  0  0  0  0
   -2.0818   -0.2061    0.0000 C   0  0  1  0  0  0  0  0  0  0  0  0
   -2.0818    0.6187    0.0000 C   0  0  0  0  0  0  0  0  0  0  0  0
   -2.7962    1.0312    0.0000 C   0  0  0  0  0  0  0  0  0  0  0  0
   -2.7962   -0.6187    0.0000 C   0  0  2  0  0  0  0  0  0  0  0  0
    0.0615   -0.6187    0.0000 C   0  0  1  0  0  0  0  0  0  0  0  0
    0.0615    1.0312    0.0000 C   0  0  0  0  0  0  0  0  0  0  0  0
   -0.6529    1.4437    0.0000 O   0  0  0  0  0  0  0  0  0  0  0  0
    0.7759   -0.2061    0.0000 C   0  0  0  0  0  0  0  0  0  0  0  0
    0.0615   -1.4437    0.0000 N   0  0  0  0  0  0  0  0  0  0  0  0
   -1.3673    1.8562    0.0000 O   0  0  0  0  0  0  0  0  0  0  0  0
    0.7759    0.6187    0.0000 C   0  0  0  0  0  0  0  0  0  0  0  0
    0.0615    1.8562    0.0000 O   0  0  0  0  0  0  0  0  0  0  0  0
    1.4905   -0.6187    0.0000 O   0  0  0  0  0  0  0  0  0  0  0  0
    0.7759   -1.8562    0.0000 C   0  0  0  0  0  0  0  0  0  0  0  0
   -0.6529   -1.8562    0.0000 C   0  0  0  0  0  0  0  0  0  0  0  0
    1.4905    1.0312    0.0000 C   0  0  0  0  0  0  0  0  0  0  0  0
   -2.7962    1.8562    0.0000 O   0  0  0  0  0  0  0  0  0  0  0  0
    2.2048    0.6187    0.0000 N   0  0  0  0  0  0  0  0  0  0  0  0
    1.4905    1.8562    0.0000 O   0  0  0  0  0  0  0  0  0  0  0  0
   -4.2251   -0.6187    0.0000 C   0  0  0  0  0  0  0  0  0  0  0  0
   -4.2251    1.0312    0.0000 C   0  0  0  0  0  0  0  0  0  0  0  0
   -4.9396   -0.2061    0.0000 C   0  0  0  0  0  0  0  0  0  0  0  0
   -4.9396    0.6187    0.0000 C   0  0  0  0  0  0  0  0  0  0  0  0
   -4.2251    1.8562    0.0000 O   0  0  0  0  0  0  0  0  0  0  0  0
   -0.6529   -1.0312    0.0000 H   0  0  0  0  0  0  0  0  0  0  0  0
   -2.0818   -1.0312    0.0000 H   0  0  0  0  0  0  0  0  0  0  0  0
   -3.5106   -1.0312    0.0000 O   0  0  0  0  0  0  0  0  0  0  0  0
   -2.7962   -1.4437    0.0000 C   0  0  0  0  0  0  0  0  0  0  0  0
    2.9193    1.0312    0.0000 C   0  0  0  0  0  0  0  0  0  0  0  0
    3.6339    0.6186    0.0000 N   0  0  0  0  0  0  0  0  0  0  0  0
    4.3875    0.9542    0.0000 C   0  0  0  0  0  0  0  0  0  0  0  0
    3.7200   -0.2018    0.0000 C   0  0  0  0  0  0  0  0  0  0  0  0
    4.9396    0.3410    0.0000 C   0  0  0  0  0  0  0  0  0  0  0  0
    4.5272   -0.3733    0.0000 C   0  0  0  0  0  0  0  0  0  0  0  0
  1 26  2  0  0  0  0
  1  2  1  0  0  0  0
  2 27  2  0  0  0  0
  3 11  1  0  0  0  0
  3 31  1  1  0  0  0
  3  4  1  0  0  0  0
  4 12  1  0  0  0  0
  4 13  1  1  0  0  0
  3  5  1  0  0  0  0
  4  6  1  0  0  0  0
  6 16  1  0  0  0  0
  5  7  1  0  0  0  0
  7 32  1  1  0  0  0
  7  8  1  0  0  0  0
  6  8  2  0  0  0  0
  8  9  1  0  0  0  0
  9  2  1  0  0  0  0
  9 23  2  0  0  0  0
  7 10  1  0  0  0  0
 10  1  1  0  0  0  0
 10 34  1  1  0  0  0
 10 33  1  0  0  0  0
 11 14  1  0  0  0  0
 11 15  1  1  0  0  0
 12 17  1  0  0  0  0
 12 18  2  0  0  0  0
 14 19  1  0  0  0  0
 14 17  2  0  0  0  0
 15 20  1  0  0  0  0
 15 21  1  0  0  0  0
 17 22  1  0  0  0  0
 22 24  1  0  0  0  0
 22 25  2  0  0  0  0
 26 28  1  0  0  0  0
 27 29  1  0  0  0  0
 27 30  1  0  0  0  0
 28 29  2  0  0  0  0
 24 35  1  0  0  0  0
 37 36  1  0  0  0  0
 38 36  1  0  0  0  0
 39 37  1  0  0  0  0
 40 38  1  0  0  0  0
 40 39  1  0  0  0  0
 35 36  1  0  0  0  0
M  END
> <DATABASE_ID>
DB01301

> <DATABASE_NAME>
drugbank

> <SMILES>
[H][C@@]12C[C@@]3([H])C(C(=O)C4=C(O)C=CC=C4[C@@]3(C)O)=C(O)[C@]1(O)C(=O)C(C(=O)NCN1CCCC1)=C(O)[C@H]2N(C)C

> <INCHI_IDENTIFIER>
InChI=1S/C27H33N3O8/c1-26(37)13-7-6-8-16(31)17(13)21(32)18-14(26)11-15-20(29(2)3)22(33)19(24(35)27(15,38)23(18)34)25(36)28-12-30-9-4-5-10-30/h6-8,14-15,20,31,33-34,37-38H,4-5,9-12H2,1-3H3,(H,28,36)/t14-,15-,20-,26+,27-/m0/s1

> <INCHI_KEY>
HMEYVGGHISAPJR-IAHYZSEUSA-N

> <FORMULA>
C27H33N3O8

> <MOLECULAR_WEIGHT>
527.5662

> <EXACT_MASS>
527.226765047

> <JCHEM_ACCEPTOR_COUNT>
10

> <JCHEM_ATOM_COUNT>
71

> <JCHEM_AVERAGE_POLARIZABILITY>
54.37491780406887

> <JCHEM_BIOAVAILABILITY>
0

> <JCHEM_DONOR_COUNT>
6

> <JCHEM_FORMAL_CHARGE>
0

> <JCHEM_GHOSE_FILTER>
0

> <JCHEM_IUPAC>
(4S,4aS,5aS,6S,12aS)-4-(dimethylamino)-3,6,10,12,12a-pentahydroxy-6-methyl-1,11-dioxo-N-[(pyrrolidin-1-yl)methyl]-1,4,4a,5,5a,6,11,12a-octahydrotetracene-2-carboxamide

> <ALOGPS_LOGP>
-0.08

> <JCHEM_LOGP>
-3.038132154630802

> <ALOGPS_LOGS>
-2.47

> <JCHEM_MDDR_LIKE_RULE>
0

> <JCHEM_NUMBER_OF_RINGS>
5

> <JCHEM_PHYSIOLOGICAL_CHARGE>
0

> <JCHEM_PKA>
7.468956174144231

> <JCHEM_PKA_STRONGEST_ACIDIC>
3.254111422987745

> <JCHEM_PKA_STRONGEST_BASIC>
9.262811455182051

> <JCHEM_POLAR_SURFACE_AREA>
170.86999999999998

> <JCHEM_REFRACTIVITY>
139.45460000000003

> <JCHEM_ROTATABLE_BOND_COUNT>
4

> <JCHEM_RULE_OF_FIVE>
0

> <ALOGPS_SOLUBILITY>
1.81e+00 g/l

> <JCHEM_TRADITIONAL_IUPAC>
atovaquone

> <JCHEM_VEBER_RULE>
0

> <DRUGBANK_ID>
DB01301

> <DRUG_GROUPS>
approved

> <GENERIC_NAME>
Rolitetracycline

> <SYNONYMS>
N-(1-Pyrrolidinylmethyl)-tetracycline; N-(Pyrrolidinomethyl)tetracycline; Pyrrolidino-methyl-tetracycline; Rolitetraciclina; Rolitetracycline; Rolitetracyclinum

> <PRODUCTS>
Reverin 275mg

> <INTERNATIONAL_BRANDS>
Reverin; Synterin

$$$$
