6087
  -OEChem-10051719383D

 46 48  0     1  0  0  0  0  0999 V2000
   -1.5677    1.5735    0.4355 S   0  0  0  0  0  0  0  0  0  0  0  0
   -1.7272   -2.6673   -0.7486 O   0  0  0  0  0  0  0  0  0  0  0  0
   -5.6450   -0.0358   -1.3787 O   0  0  0  0  0  0  0  0  0  0  0  0
   -5.1925   -1.4572    0.3449 O   0  0  0  0  0  0  0  0  0  0  0  0
    1.9625   -0.6125    2.0626 O   0  0  0  0  0  0  0  0  0  0  0  0
    2.2372    2.3150    0.4677 O   0  0  0  0  0  0  0  0  0  0  0  0
    3.4902   -2.2189   -0.4830 O   0  0  0  0  0  0  0  0  0  0  0  0
   -2.6222   -0.7957    0.3767 N   0  0  0  0  0  0  0  0  0  0  0  0
    0.5486   -0.6410    0.2271 N   0  0  0  0  0  0  0  0  0  0  0  0
   -1.7259   -0.0500    1.2652 C   0  0  1  0  0  0  0  0  0  0  0  0
   -3.2962    1.4370   -0.2455 C   0  0  0  0  0  0  0  0  0  0  0  0
   -3.4434   -0.0656   -0.5677 C   0  0  2  0  0  0  0  0  0  0  0  0
   -0.6479   -1.0958    0.9491 C   0  0  1  0  0  0  0  0  0  0  0  0
   -1.7102   -1.7566    0.0480 C   0  0  0  0  0  0  0  0  0  0  0  0
   -4.2671    1.9574    0.8231 C   0  0  0  0  0  0  0  0  0  0  0  0
   -3.4014    2.2915   -1.5099 C   0  0  0  0  0  0  0  0  0  0  0  0
   -4.8320   -0.6100   -0.4585 C   0  0  0  0  0  0  0  0  0  0  0  0
    1.7535   -0.4413    0.8644 C   0  0  0  0  0  0  0  0  0  0  0  0
    2.8575    0.0450   -0.0026 C   0  0  0  0  0  0  0  0  0  0  0  0
    3.0397    1.4060   -0.1547 C   0  0  0  0  0  0  0  0  0  0  0  0
    3.6709   -0.8764   -0.6335 C   0  0  0  0  0  0  0  0  0  0  0  0
    4.0756    1.8633   -0.9695 C   0  0  0  0  0  0  0  0  0  0  0  0
    4.7066   -0.4190   -1.4483 C   0  0  0  0  0  0  0  0  0  0  0  0
    4.9090    0.9508   -1.6162 C   0  0  0  0  0  0  0  0  0  0  0  0
    2.6395    2.7535    1.7635 C   0  0  0  0  0  0  0  0  0  0  0  0
    4.1878   -2.8501    0.5887 C   0  0  0  0  0  0  0  0  0  0  0  0
   -2.0791   -0.0232    2.3000 H   0  0  0  0  0  0  0  0  0  0  0  0
   -3.0689   -0.3030   -1.5727 H   0  0  0  0  0  0  0  0  0  0  0  0
   -0.3956   -1.7382    1.8022 H   0  0  0  0  0  0  0  0  0  0  0  0
   -4.2487    1.3469    1.7329 H   0  0  0  0  0  0  0  0  0  0  0  0
   -4.0327    2.9902    1.1081 H   0  0  0  0  0  0  0  0  0  0  0  0
   -5.2987    1.9609    0.4540 H   0  0  0  0  0  0  0  0  0  0  0  0
   -3.2034    3.3489   -1.2978 H   0  0  0  0  0  0  0  0  0  0  0  0
   -2.6925    1.9675   -2.2809 H   0  0  0  0  0  0  0  0  0  0  0  0
   -4.4050    2.2332   -1.9446 H   0  0  0  0  0  0  0  0  0  0  0  0
    0.4953   -0.4531   -0.7716 H   0  0  0  0  0  0  0  0  0  0  0  0
   -6.5620   -0.3793   -1.3227 H   0  0  0  0  0  0  0  0  0  0  0  0
    4.2388    2.9289   -1.1058 H   0  0  0  0  0  0  0  0  0  0  0  0
    5.3595   -1.1238   -1.9561 H   0  0  0  0  0  0  0  0  0  0  0  0
    5.7152    1.3069   -2.2507 H   0  0  0  0  0  0  0  0  0  0  0  0
    1.8390    3.3720    2.1786 H   0  0  0  0  0  0  0  0  0  0  0  0
    3.5471    3.3609    1.6896 H   0  0  0  0  0  0  0  0  0  0  0  0
    2.8120    1.9084    2.4362 H   0  0  0  0  0  0  0  0  0  0  0  0
    3.8657   -3.8938    0.6383 H   0  0  0  0  0  0  0  0  0  0  0  0
    3.9647   -2.3703    1.5460 H   0  0  0  0  0  0  0  0  0  0  0  0
    5.2662   -2.8263    0.4027 H   0  0  0  0  0  0  0  0  0  0  0  0
  1 10  1  0  0  0  0
  1 11  1  0  0  0  0
  2 14  2  0  0  0  0
  3 17  1  0  0  0  0
  3 37  1  0  0  0  0
  4 17  2  0  0  0  0
  5 18  2  0  0  0  0
  6 20  1  0  0  0  0
  6 25  1  0  0  0  0
  7 21  1  0  0  0  0
  7 26  1  0  0  0  0
  8 10  1  0  0  0  0
  8 12  1  0  0  0  0
  8 14  1  0  0  0  0
  9 13  1  0  0  0  0
  9 18  1  0  0  0  0
  9 36  1  0  0  0  0
 10 13  1  0  0  0  0
 10 27  1  0  0  0  0
 11 12  1  0  0  0  0
 11 15  1  0  0  0  0
 11 16  1  0  0  0  0
 12 17  1  0  0  0  0
 12 28  1  0  0  0  0
 13 14  1  0  0  0  0
 13 29  1  0  0  0  0
 15 30  1  0  0  0  0
 15 31  1  0  0  0  0
 15 32  1  0  0  0  0
 16 33  1  0  0  0  0
 16 34  1  0  0  0  0
 16 35  1  0  0  0  0
 18 19  1  0  0  0  0
 19 20  2  0  0  0  0
 19 21  1  0  0  0  0
 20 22  1  0  0  0  0
 21 23  2  0  0  0  0
 22 24  2  0  0  0  0
 22 38  1  0  0  0  0
 23 24  1  0  0  0  0
 23 39  1  0  0  0  0
 24 40  1  0  0  0  0
 25 41  1  0  0  0  0
 25 42  1  0  0  0  0
 25 43  1  0  0  0  0
 26 44  1  0  0  0  0
 26 45  1  0  0  0  0
 26 46  1  0  0  0  0
M  END
> <DATABASE_ID>
DB01603

> <DATABASE_NAME>
drugbank

> <ORIGINAL_SOURCE>
PUBCHEM

> <ORIGINAL_SOURCE_URL>
https://pubchem.ncbi.nlm.nih.gov/rest/pug/compound/inchikey/RJQXTJLFIWVMTO-TYNCELHUSA-N/SDF?record_type=3d

> <SMILES>
[H][C@]12SC(C)(C)[C@@H](N1C(=O)[C@H]2NC(=O)C1=C(OC)C=CC=C1OC)C(O)=O

> <INCHI_IDENTIFIER>
InChI=1S/C17H20N2O6S/c1-17(2)12(16(22)23)19-14(21)11(15(19)26-17)18-13(20)10-8(24-3)6-5-7-9(10)25-4/h5-7,11-12,15H,1-4H3,(H,18,20)(H,22,23)/t11-,12+,15-/m1/s1

> <INCHI_KEY>
RJQXTJLFIWVMTO-TYNCELHUSA-N

> <FORMULA>
C17H20N2O6S

> <MOLECULAR_WEIGHT>
380.415

> <EXACT_MASS>
380.104207072

> <JCHEM_ACCEPTOR_COUNT>
6

> <JCHEM_AVERAGE_POLARIZABILITY>
37.271308308670214

> <JCHEM_BIOAVAILABILITY>
1

> <JCHEM_DONOR_COUNT>
2

> <JCHEM_FORMAL_CHARGE>
0

> <JCHEM_GHOSE_FILTER>
1

> <JCHEM_IUPAC>
(2S,5R,6R)-6-(2,6-dimethoxybenzamido)-3,3-dimethyl-7-oxo-4-thia-1-azabicyclo[3.2.0]heptane-2-carboxylic acid

> <ALOGPS_LOGP>
1.79

> <JCHEM_LOGP>
0.7851700403333338

> <ALOGPS_LOGS>
-3.09

> <JCHEM_MDDR_LIKE_RULE>
0

> <JCHEM_NUMBER_OF_RINGS>
3

> <JCHEM_PHYSIOLOGICAL_CHARGE>
-1

> <JCHEM_PKA>
13.328155958919588

> <JCHEM_PKA_STRONGEST_ACIDIC>
2.964298910682354

> <JCHEM_PKA_STRONGEST_BASIC>
-1.839287035616584

> <JCHEM_POLAR_SURFACE_AREA>
105.17

> <JCHEM_REFRACTIVITY>
93.40280000000001

> <JCHEM_ROTATABLE_BOND_COUNT>
5

> <JCHEM_RULE_OF_FIVE>
1

> <ALOGPS_SOLUBILITY>
3.10e-01 g/l

> <JCHEM_TRADITIONAL_IUPAC>
methicillin

> <JCHEM_VEBER_RULE>
0

$$$$
