11993740
  -OEChem-10061700073D

 52 55  0     1  0  0  0  0  0999 V2000
   -0.9962    1.4566   -0.2344 O   0  0  0  0  0  0  0  0  0  0  0  0
    3.3881   -2.6190    0.4030 O   0  0  0  0  0  0  0  0  0  0  0  0
    5.6410   -1.6625   -0.5297 O   0  0  0  0  0  0  0  0  0  0  0  0
    6.0329    0.4734    0.1877 O   0  0  0  0  0  0  0  0  0  0  0  0
    1.8880    1.1092   -0.2837 N   0  0  0  0  0  0  0  0  0  0  0  0
   -2.6732   -0.6352    0.2555 N   0  0  1  0  0  0  0  0  0  0  0  0
   -4.3183    1.8374    0.8164 N   0  0  0  0  0  0  0  0  0  0  0  0
    1.4752    2.5076   -0.5460 C   0  0  0  0  0  0  0  0  0  0  0  0
    2.0251    3.6298    0.2681 C   0  0  0  0  0  0  0  0  0  0  0  0
    0.5849    3.2315    0.4069 C   0  0  0  0  0  0  0  0  0  0  0  0
   -4.8332   -0.6154   -0.9426 C   0  0  1  0  0  0  0  0  0  0  0  0
   -4.5989    0.4947    1.3314 C   0  0  1  0  0  0  0  0  0  0  0  0
   -5.5289   -0.2677    0.3810 C   0  0  0  0  0  0  0  0  0  0  0  0
   -3.5207   -1.3729   -0.6885 C   0  0  0  0  0  0  0  0  0  0  0  0
   -3.2879   -0.2728    1.5419 C   0  0  0  0  0  0  0  0  0  0  0  0
    0.9719    0.0482   -0.0330 C   0  0  0  0  0  0  0  0  0  0  0  0
   -1.2872   -0.8288    0.2362 C   0  0  0  0  0  0  0  0  0  0  0  0
   -0.4195    0.2380   -0.0142 C   0  0  0  0  0  0  0  0  0  0  0  0
    3.2452    0.8517   -0.2879 C   0  0  0  0  0  0  0  0  0  0  0  0
    1.4637   -1.2529    0.2085 C   0  0  0  0  0  0  0  0  0  0  0  0
   -5.7613   -1.4332   -1.8395 C   0  0  0  0  0  0  0  0  0  0  0  0
   -0.7821   -2.1042    0.4725 C   0  0  0  0  0  0  0  0  0  0  0  0
    3.8146   -0.3404   -0.0719 C   0  0  0  0  0  0  0  0  0  0  0  0
    0.5934   -2.3208    0.4595 C   0  0  0  0  0  0  0  0  0  0  0  0
    2.9293   -1.5020    0.1978 C   0  0  0  0  0  0  0  0  0  0  0  0
    5.2750   -0.4321   -0.1123 C   0  0  0  0  0  0  0  0  0  0  0  0
   -1.3206    1.7818   -1.5828 C   0  0  0  0  0  0  0  0  0  0  0  0
    1.3651    2.7066   -1.6070 H   0  0  0  0  0  0  0  0  0  0  0  0
    2.2440    4.5620   -0.2384 H   0  0  0  0  0  0  0  0  0  0  0  0
    2.6821    3.4112    1.1010 H   0  0  0  0  0  0  0  0  0  0  0  0
    0.3249    2.8019    1.3682 H   0  0  0  0  0  0  0  0  0  0  0  0
   -0.1390    3.9419    0.0251 H   0  0  0  0  0  0  0  0  0  0  0  0
   -4.6007    0.3148   -1.4763 H   0  0  0  0  0  0  0  0  0  0  0  0
   -5.1030    0.6108    2.2977 H   0  0  0  0  0  0  0  0  0  0  0  0
   -6.4338    0.3218    0.1858 H   0  0  0  0  0  0  0  0  0  0  0  0
   -5.8602   -1.1907    0.8753 H   0  0  0  0  0  0  0  0  0  0  0  0
   -3.7276   -2.3743   -0.2900 H   0  0  0  0  0  0  0  0  0  0  0  0
   -2.9966   -1.5019   -1.6443 H   0  0  0  0  0  0  0  0  0  0  0  0
   -2.5996    0.3328    2.1466 H   0  0  0  0  0  0  0  0  0  0  0  0
   -3.4849   -1.1894    2.1130 H   0  0  0  0  0  0  0  0  0  0  0  0
    3.8507    1.7268   -0.5050 H   0  0  0  0  0  0  0  0  0  0  0  0
   -5.2779   -1.6571   -2.7963 H   0  0  0  0  0  0  0  0  0  0  0  0
   -6.0359   -2.3831   -1.3685 H   0  0  0  0  0  0  0  0  0  0  0  0
   -6.6830   -0.8808   -2.0505 H   0  0  0  0  0  0  0  0  0  0  0  0
   -1.4452   -2.9415    0.6748 H   0  0  0  0  0  0  0  0  0  0  0  0
    0.9680   -3.3233    0.6474 H   0  0  0  0  0  0  0  0  0  0  0  0
   -3.7674    1.7753   -0.0381 H   0  0  0  0  0  0  0  0  0  0  0  0
   -3.7337    2.3405    1.4833 H   0  0  0  0  0  0  0  0  0  0  0  0
   -2.2464    1.2775   -1.8745 H   0  0  0  0  0  0  0  0  0  0  0  0
   -0.5266    1.4914   -2.2784 H   0  0  0  0  0  0  0  0  0  0  0  0
   -1.4863    2.8597   -1.6590 H   0  0  0  0  0  0  0  0  0  0  0  0
    6.6159   -1.7632   -0.5700 H   0  0  0  0  0  0  0  0  0  0  0  0
  1 18  1  0  0  0  0
  1 27  1  0  0  0  0
  2 25  2  0  0  0  0
  3 26  1  0  0  0  0
  3 52  1  0  0  0  0
  4 26  2  0  0  0  0
  5  8  1  0  0  0  0
  5 16  1  0  0  0  0
  5 19  1  0  0  0  0
  6 14  1  0  0  0  0
  6 15  1  0  0  0  0
  6 17  1  0  0  0  0
  7 12  1  0  0  0  0
  7 47  1  0  0  0  0
  7 48  1  0  0  0  0
  8  9  1  0  0  0  0
  8 10  1  0  0  0  0
  8 28  1  0  0  0  0
  9 10  1  0  0  0  0
  9 29  1  0  0  0  0
  9 30  1  0  0  0  0
 10 31  1  0  0  0  0
 10 32  1  0  0  0  0
 11 13  1  0  0  0  0
 11 14  1  0  0  0  0
 11 21  1  0  0  0  0
 11 33  1  0  0  0  0
 12 13  1  0  0  0  0
 12 15  1  0  0  0  0
 12 34  1  0  0  0  0
 13 35  1  0  0  0  0
 13 36  1  0  0  0  0
 14 37  1  0  0  0  0
 14 38  1  0  0  0  0
 15 39  1  0  0  0  0
 15 40  1  0  0  0  0
 16 18  1  0  0  0  0
 16 20  2  0  0  0  0
 17 18  2  0  0  0  0
 17 22  1  0  0  0  0
 19 23  2  0  0  0  0
 19 41  1  0  0  0  0
 20 24  1  0  0  0  0
 20 25  1  0  0  0  0
 21 42  1  0  0  0  0
 21 43  1  0  0  0  0
 21 44  1  0  0  0  0
 22 24  2  0  0  0  0
 22 45  1  0  0  0  0
 23 25  1  0  0  0  0
 23 26  1  0  0  0  0
 24 46  1  0  0  0  0
 27 49  1  0  0  0  0
 27 50  1  0  0  0  0
 27 51  1  0  0  0  0
M  END
> <DATABASE_ID>
DB06600

> <DATABASE_NAME>
drugbank

> <ORIGINAL_SOURCE>
PUBCHEM

> <ORIGINAL_SOURCE_URL>
https://pubchem.ncbi.nlm.nih.gov/rest/pug/compound/inchikey/AVPQPGFLVZTJOR-RYUDHWBXSA-N/SDF?record_type=3d

> <SMILES>
COC1=C2N(C=C(C(O)=O)C(=O)C2=CC=C1N1C[C@@H](C)C[C@H](N)C1)C1CC1

> <INCHI_IDENTIFIER>
InChI=1S/C20H25N3O4/c1-11-7-12(21)9-22(8-11)16-6-5-14-17(19(16)27-2)23(13-3-4-13)10-15(18(14)24)20(25)26/h5-6,10-13H,3-4,7-9,21H2,1-2H3,(H,25,26)/t11-,12-/m0/s1

> <INCHI_KEY>
AVPQPGFLVZTJOR-RYUDHWBXSA-N

> <FORMULA>
C20H25N3O4

> <MOLECULAR_WEIGHT>
371.437

> <EXACT_MASS>
371.184506297

> <JCHEM_ACCEPTOR_COUNT>
7

> <JCHEM_ATOM_COUNT>
52

> <JCHEM_AVERAGE_POLARIZABILITY>
40.05477893071219

> <JCHEM_BIOAVAILABILITY>
1

> <JCHEM_DONOR_COUNT>
2

> <JCHEM_FORMAL_CHARGE>
0

> <JCHEM_GHOSE_FILTER>
0

> <JCHEM_IUPAC>
7-[(3S,5S)-3-amino-5-methylpiperidin-1-yl]-1-cyclopropyl-8-methoxy-4-oxo-1,4-dihydroquinoline-3-carboxylic acid

> <ALOGPS_LOGP>
0.32

> <JCHEM_LOGP>
-0.441643983859724

> <ALOGPS_LOGS>
-2.91

> <JCHEM_MDDR_LIKE_RULE>
0

> <JCHEM_NUMBER_OF_RINGS>
4

> <JCHEM_PHYSIOLOGICAL_CHARGE>
0

> <JCHEM_PKA_STRONGEST_ACIDIC>
5.726191934196321

> <JCHEM_PKA_STRONGEST_BASIC>
9.658725657122702

> <JCHEM_POLAR_SURFACE_AREA>
96.1

> <JCHEM_REFRACTIVITY>
103.06339999999996

> <JCHEM_ROTATABLE_BOND_COUNT>
4

> <JCHEM_RULE_OF_FIVE>
1

> <ALOGPS_SOLUBILITY>
4.53e-01 g/l

> <JCHEM_TRADITIONAL_IUPAC>
nemonoxacin

> <JCHEM_VEBER_RULE>
0

$$$$
