65947
  -OEChem-10051722363D

 52 56  0     1  0  0  0  0  0999 V2000
    4.7106    3.0769   -0.1651 S   0  0  0  0  0  0  0  0  0  0  0  0
    0.4375   -3.4431    0.1297 F   0  0  0  0  0  0  0  0  0  0  0  0
   -5.6682    1.0849    0.7613 O   0  0  0  0  0  0  0  0  0  0  0  0
    5.3161   -2.0712   -0.2319 O   0  0  0  0  0  0  0  0  0  0  0  0
   -7.2084    1.4794   -0.9391 O   0  0  0  0  0  0  0  0  0  0  0  0
    7.3360   -0.5209   -1.0156 O   0  0  0  0  0  0  0  0  0  0  0  0
    7.3899    1.4580    0.1294 O   0  0  0  0  0  0  0  0  0  0  0  0
   -6.5469    3.1809    0.4504 O   0  0  0  0  0  0  0  0  0  0  0  0
   -1.0012   -1.0773    0.2474 N   0  0  0  0  0  0  0  0  0  0  0  0
   -3.8231   -0.9472    0.6705 N   0  0  0  0  0  0  0  0  0  0  0  0
    3.2247    1.3354   -0.0583 N   0  0  0  0  0  0  0  0  0  0  0  0
   -1.7801    0.0234   -0.3281 C   0  0  0  0  0  0  0  0  0  0  0  0
   -1.6024   -1.7401    1.4116 C   0  0  0  0  0  0  0  0  0  0  0  0
   -3.2303   -0.4081   -0.5594 C   0  0  0  0  0  0  0  0  0  0  0  0
   -3.0578   -2.1154    1.1234 C   0  0  0  0  0  0  0  0  0  0  0  0
    0.3943   -1.0685    0.1437 C   0  0  0  0  0  0  0  0  0  0  0  0
    2.4681    0.1607   -0.0061 C   0  0  0  0  0  0  0  0  0  0  0  0
    2.9386    2.7172   -0.0316 C   0  0  1  0  0  0  0  0  0  0  0  0
    4.5192    1.3632   -0.1566 C   0  0  0  0  0  0  0  0  0  0  0  0
   -5.2238   -1.3056    0.4508 C   0  0  0  0  0  0  0  0  0  0  0  0
    1.0768    0.1486    0.0982 C   0  0  0  0  0  0  0  0  0  0  0  0
    3.1715   -1.0640   -0.0643 C   0  0  0  0  0  0  0  0  0  0  0  0
    1.0956   -2.2754    0.0858 C   0  0  0  0  0  0  0  0  0  0  0  0
    5.3408    0.3061   -0.2230 C   0  0  0  0  0  0  0  0  0  0  0  0
    2.4870   -2.2790   -0.0182 C   0  0  0  0  0  0  0  0  0  0  0  0
    4.6673   -1.0333   -0.1775 C   0  0  0  0  0  0  0  0  0  0  0  0
    2.3900    3.1571    1.3029 C   0  0  0  0  0  0  0  0  0  0  0  0
   -5.9324   -0.0631    0.0414 C   0  0  0  0  0  0  0  0  0  0  0  0
   -6.8031    0.1599   -0.9198 C   0  0  0  0  0  0  0  0  0  0  0  0
    6.7810    0.5044   -0.3315 C   0  0  0  0  0  0  0  0  0  0  0  0
   -7.3873   -0.7475   -1.9366 C   0  0  0  0  0  0  0  0  0  0  0  0
   -6.4798    2.0037    0.1163 C   0  0  0  0  0  0  0  0  0  0  0  0
   -1.7586    0.8899    0.3454 H   0  0  0  0  0  0  0  0  0  0  0  0
   -1.3598    0.3314   -1.2939 H   0  0  0  0  0  0  0  0  0  0  0  0
   -1.0650   -2.6507    1.6965 H   0  0  0  0  0  0  0  0  0  0  0  0
   -1.5546   -1.0608    2.2730 H   0  0  0  0  0  0  0  0  0  0  0  0
   -3.7494    0.4799   -0.9348 H   0  0  0  0  0  0  0  0  0  0  0  0
   -3.2607   -1.1594   -1.3610 H   0  0  0  0  0  0  0  0  0  0  0  0
   -3.0881   -2.9157    0.3716 H   0  0  0  0  0  0  0  0  0  0  0  0
   -3.4970   -2.5161    2.0450 H   0  0  0  0  0  0  0  0  0  0  0  0
    2.3425    3.0434   -0.8911 H   0  0  0  0  0  0  0  0  0  0  0  0
   -5.3255   -2.0978   -0.2998 H   0  0  0  0  0  0  0  0  0  0  0  0
   -5.6698   -1.6676    1.3848 H   0  0  0  0  0  0  0  0  0  0  0  0
    0.5425    1.0922    0.1440 H   0  0  0  0  0  0  0  0  0  0  0  0
    3.0131   -3.2279   -0.0620 H   0  0  0  0  0  0  0  0  0  0  0  0
    2.9523    2.7564    2.1553 H   0  0  0  0  0  0  0  0  0  0  0  0
    2.3993    4.2503    1.3842 H   0  0  0  0  0  0  0  0  0  0  0  0
    1.3472    2.8472    1.4250 H   0  0  0  0  0  0  0  0  0  0  0  0
   -7.0276   -1.7747   -1.8300 H   0  0  0  0  0  0  0  0  0  0  0  0
   -7.1304   -0.4034   -2.9433 H   0  0  0  0  0  0  0  0  0  0  0  0
   -8.4781   -0.7641   -1.8470 H   0  0  0  0  0  0  0  0  0  0  0  0
    8.3073   -0.4191   -1.1074 H   0  0  0  0  0  0  0  0  0  0  0  0
  1 18  1  0  0  0  0
  1 19  1  0  0  0  0
  2 23  1  0  0  0  0
  3 28  1  0  0  0  0
  3 32  1  0  0  0  0
  4 26  2  0  0  0  0
  5 29  1  0  0  0  0
  5 32  1  0  0  0  0
  6 30  1  0  0  0  0
  6 52  1  0  0  0  0
  7 30  2  0  0  0  0
  8 32  2  0  0  0  0
  9 12  1  0  0  0  0
  9 13  1  0  0  0  0
  9 16  1  0  0  0  0
 10 14  1  0  0  0  0
 10 15  1  0  0  0  0
 10 20  1  0  0  0  0
 11 17  1  0  0  0  0
 11 18  1  0  0  0  0
 11 19  1  0  0  0  0
 12 14  1  0  0  0  0
 12 33  1  0  0  0  0
 12 34  1  0  0  0  0
 13 15  1  0  0  0  0
 13 35  1  0  0  0  0
 13 36  1  0  0  0  0
 14 37  1  0  0  0  0
 14 38  1  0  0  0  0
 15 39  1  0  0  0  0
 15 40  1  0  0  0  0
 16 21  1  0  0  0  0
 16 23  2  0  0  0  0
 17 21  2  0  0  0  0
 17 22  1  0  0  0  0
 18 27  1  0  0  0  0
 18 41  1  0  0  0  0
 19 24  2  0  0  0  0
 20 28  1  0  0  0  0
 20 42  1  0  0  0  0
 20 43  1  0  0  0  0
 21 44  1  0  0  0  0
 22 25  2  0  0  0  0
 22 26  1  0  0  0  0
 23 25  1  0  0  0  0
 24 26  1  0  0  0  0
 24 30  1  0  0  0  0
 25 45  1  0  0  0  0
 27 46  1  0  0  0  0
 27 47  1  0  0  0  0
 27 48  1  0  0  0  0
 28 29  2  0  0  0  0
 29 31  1  0  0  0  0
 31 49  1  0  0  0  0
 31 50  1  0  0  0  0
 31 51  1  0  0  0  0
M  END
> <DATABASE_ID>
DB11892

> <DATABASE_NAME>
drugbank

> <ORIGINAL_SOURCE>
PUBCHEM

> <ORIGINAL_SOURCE_URL>
https://pubchem.ncbi.nlm.nih.gov/rest/pug/compound/inchikey/PWNMXPDKBYZCOO-UHFFFAOYSA-N/SDF?record_type=3d

> <SMILES>
CC1SC2=C(C(O)=O)C(=O)C3=CC(F)=C(C=C3N12)N1CCN(CC2=C(C)OC(=O)O2)CC1

> <INCHI_IDENTIFIER>
InChI=1S/C21H20FN3O6S/c1-10-16(31-21(29)30-10)9-23-3-5-24(6-4-23)15-8-14-12(7-13(15)22)18(26)17(20(27)28)19-25(14)11(2)32-19/h7-8,11H,3-6,9H2,1-2H3,(H,27,28)

> <INCHI_KEY>
PWNMXPDKBYZCOO-UHFFFAOYSA-N

> <FORMULA>
C21H20FN3O6S

> <MOLECULAR_WEIGHT>
461.46

> <EXACT_MASS>
461.105684713

> <JCHEM_ACCEPTOR_COUNT>
8

> <JCHEM_ATOM_COUNT>
52

> <JCHEM_AVERAGE_POLARIZABILITY>
44.944541727204026

> <JCHEM_BIOAVAILABILITY>
1

> <JCHEM_DONOR_COUNT>
1

> <JCHEM_FORMAL_CHARGE>
0

> <JCHEM_GHOSE_FILTER>
1

> <JCHEM_IUPAC>
6-fluoro-1-methyl-7-{4-[(5-methyl-2-oxo-2H-1,3-dioxol-4-yl)methyl]piperazin-1-yl}-4-oxo-1H,4H-[1,3]thiazeto[3,2-a]quinoline-3-carboxylic acid

> <ALOGPS_LOGP>
1.77

> <JCHEM_LOGP>
2.493977008178067

> <ALOGPS_LOGS>
-2.89

> <JCHEM_MDDR_LIKE_RULE>
0

> <JCHEM_NUMBER_OF_RINGS>
5

> <JCHEM_PHYSIOLOGICAL_CHARGE>
-1

> <JCHEM_PKA>
10.896677654080264

> <JCHEM_PKA_STRONGEST_ACIDIC>
6.028546900007003

> <JCHEM_PKA_STRONGEST_BASIC>
5.163019608969104

> <JCHEM_POLAR_SURFACE_AREA>
99.62

> <JCHEM_REFRACTIVITY>
127.36879999999998

> <JCHEM_ROTATABLE_BOND_COUNT>
4

> <JCHEM_RULE_OF_FIVE>
1

> <ALOGPS_SOLUBILITY>
5.93e-01 g/l

> <JCHEM_TRADITIONAL_IUPAC>
prulifloxacin

> <JCHEM_VEBER_RULE>
0

$$$$
