 
  Mrv0541 02231214552D          
 
 66 68  0  0  1  0            999 V2000
   17.5303   -9.2087    0.0000 C   0  0  1  0  0  0  0  0  0  0  0  0
   18.2484   -8.7918    0.0000 C   0  0  1  0  0  0  0  0  0  0  0  0
   16.8096   -8.7952    0.0000 O   0  0  0  0  0  0  0  0  0  0  0  0
   17.5303  -10.0323    0.0000 C   0  0  0  0  0  0  0  0  0  0  0  0
   18.2484   -7.9682    0.0000 C   0  0  2  0  0  0  0  0  0  0  0  0
   18.9655   -9.2053    0.0000 C   0  0  0  0  0  0  0  0  0  0  0  0
   16.8096   -7.9682    0.0000 C   0  0  1  0  0  0  0  0  0  0  0  0
   16.8165  -10.4458    0.0000 C   0  0  1  0  0  0  0  0  0  0  0  0
   17.5303   -7.5547    0.0000 C   0  0  0  0  0  0  0  0  0  0  0  0
   18.9620   -7.5513    0.0000 O   0  0  0  0  0  0  0  0  0  0  0  0
   18.9655  -10.0323    0.0000 O   0  0  0  0  0  0  0  0  0  0  0  0
   19.6793   -8.7918    0.0000 O   0  0  0  0  0  0  0  0  0  0  0  0
   16.0992   -7.5582    0.0000 C   0  0  0  0  0  0  0  0  0  0  0  0
   16.8061   -7.1411    0.0000 O   0  0  0  0  0  0  0  0  0  0  0  0
   16.8199  -11.2728    0.0000 O   0  0  0  0  0  0  0  0  0  0  0  0
   16.1061  -10.0392    0.0000 C   0  0  0  0  0  0  0  0  0  0  0  0
   15.3853   -7.9716    0.0000 C   0  0  2  0  0  0  0  0  0  0  0  0
   16.1061  -11.6898    0.0000 C   0  0  1  0  0  0  0  0  0  0  0  0
   15.3922  -10.4493    0.0000 C   0  0  0  0  0  0  0  0  0  0  0  0
   14.6675   -7.5616    0.0000 C   0  0  0  0  0  0  0  0  0  0  0  0
   15.3853   -8.7987    0.0000 O   0  0  0  0  0  0  0  0  0  0  0  0
   16.1096  -12.5210    0.0000 C   0  0  2  0  0  0  0  0  0  0  0  0
   15.3922  -11.2764    0.0000 O   0  0  0  0  0  0  0  0  0  0  0  0
   14.6784  -10.0468    0.0000 C   0  0  0  0  0  0  0  0  0  0  0  0
   13.9537   -7.9751    0.0000 C   0  0  2  0  0  0  0  0  0  0  0  0
   15.3958  -12.9346    0.0000 C   0  0  2  0  0  0  0  0  0  0  0  0
   16.8276  -12.9269    0.0000 O   0  0  0  0  0  0  0  0  0  0  0  0
   14.6784  -11.6898    0.0000 C   0  0  1  0  0  0  0  0  0  0  0  0
   13.9606  -10.4603    0.0000 C   0  0  0  0  0  0  0  0  0  0  0  0
   13.2399   -7.5651    0.0000 C   0  0  1  0  0  0  0  0  0  0  0  0
   13.9571   -8.8021    0.0000 O   0  0  0  0  0  0  0  0  0  0  0  0
   14.6784  -12.5210    0.0000 C   0  0  1  0  0  0  0  0  0  0  0  0
   15.3958  -13.7615    0.0000 N   0  0  0  0  0  0  0  0  0  0  0  0
   13.9571  -11.2839    0.0000 C   0  0  0  0  0  0  0  0  0  0  0  0
   13.2467  -10.0502    0.0000 C   0  0  0  0  0  0  0  0  0  0  0  0
   12.5295   -7.9827    0.0000 C   0  0  0  0  0  0  0  0  0  0  0  0
   13.2399   -6.7379    0.0000 O   0  0  0  0  0  0  0  0  0  0  0  0
   13.9606  -12.9380    0.0000 O   0  0  0  0  0  0  0  0  0  0  0  0
   12.5364  -10.4638    0.0000 C   0  0  0  0  0  0  0  0  0  0  0  0
   11.8115   -7.5726    0.0000 C   0  0  0  0  0  0  0  0  0  0  0  0
   11.8226  -10.0537    0.0000 C   0  0  0  0  0  0  0  0  0  0  0  0
   11.0976   -7.9862    0.0000 C   0  0  2  0  0  0  0  0  0  0  0  0
   11.1046  -10.4672    0.0000 C   0  0  0  0  0  0  0  0  0  0  0  0
   10.3838   -7.5761    0.0000 C   0  0  0  0  0  0  0  0  0  0  0  0
   11.0976   -8.8131    0.0000 O   0  0  0  0  0  0  0  0  0  0  0  0
   10.3907  -10.0571    0.0000 C   0  0  0  0  0  0  0  0  0  0  0  0
    9.6700   -7.9896    0.0000 C   0  0  2  0  0  0  0  0  0  0  0  0
    9.6769  -10.4707    0.0000 C   0  0  0  0  0  0  0  0  0  0  0  0
    8.9555   -7.5795    0.0000 C   0  0  0  0  0  0  0  0  0  0  0  0
    9.6735   -8.8166    0.0000 O   0  0  0  0  0  0  0  0  0  0  0  0
    8.9666  -10.0606    0.0000 C   0  0  0  0  0  0  0  0  0  0  0  0
    8.2417   -7.9931    0.0000 C   0  0  0  0  0  0  0  0  0  0  0  0
    8.2451  -10.4741    0.0000 C   0  0  0  0  0  0  0  0  0  0  0  0
    7.5279   -7.5830    0.0000 O   0  0  0  0  0  0  0  0  0  0  0  0
    8.2417   -8.8200    0.0000 O   0  0  0  0  0  0  0  0  0  0  0  0
    7.5314  -10.0640    0.0000 C   0  0  0  0  0  0  0  0  0  0  0  0
    6.8141   -7.9965    0.0000 C   0  0  2  0  0  0  0  0  0  0  0  0
    6.8176  -10.4776    0.0000 C   0  0  0  0  0  0  0  0  0  0  0  0
    6.8141   -8.8235    0.0000 C   0  0  1  0  0  0  0  0  0  0  0  0
    6.0962   -7.5830    0.0000 C   0  0  0  0  0  0  0  0  0  0  0  0
    6.0962  -10.0640    0.0000 C   0  0  1  0  0  0  0  0  0  0  0  0
    6.0962   -9.2371    0.0000 C   0  0  1  0  0  0  0  0  0  0  0  0
    7.5314   -9.2371    0.0000 C   0  0  0  0  0  0  0  0  0  0  0  0
    5.3872  -10.4776    0.0000 C   0  0  0  0  0  0  0  0  0  0  0  0
    5.3872   -8.8235    0.0000 O   0  0  0  0  0  0  0  0  0  0  0  0
   18.2392   -9.6196    0.0000 H   0  0  0  0  0  0  0  0  0  0  0  0
  1  2  1  0  0  0  0
  1  3  1  0  0  0  0
  1  4  1  0  0  0  0
  2  5  1  0  0  0  0
  2  6  1  1  0  0  0
  3  7  1  0  0  0  0
  4  8  1  0  0  0  0
  5  9  1  0  0  0  0
  5 10  1  6  0  0  0
  6 11  1  0  0  0  0
  6 12  2  0  0  0  0
  7 13  1  0  0  0  0
  7 14  1  1  0  0  0
  8 15  1  1  0  0  0
  8 16  1  0  0  0  0
 13 17  1  0  0  0  0
 15 18  1  0  0  0  0
 16 19  2  0  0  0  0
 17 20  1  0  0  0  0
 17 21  1  1  0  0  0
 18 22  1  0  0  0  0
 18 23  1  1  0  0  0
 19 24  1  0  0  0  0
 20 25  1  0  0  0  0
 22 26  1  0  0  0  0
 22 27  1  1  0  0  0
 23 28  1  0  0  0  0
 24 29  2  0  0  0  0
 25 30  1  0  0  0  0
 25 31  1  1  0  0  0
 26 32  1  0  0  0  0
 26 33  1  1  0  0  0
 28 34  1  1  0  0  0
 29 35  1  0  0  0  0
 30 36  1  0  0  0  0
 30 37  1  1  0  0  0
 32 38  1  6  0  0  0
 35 39  2  0  0  0  0
 36 40  1  0  0  0  0
 39 41  1  0  0  0  0
 40 42  1  0  0  0  0
 41 43  2  0  0  0  0
 42 44  1  0  0  0  0
 42 45  1  1  0  0  0
 43 46  1  0  0  0  0
 44 47  1  0  0  0  0
 46 48  2  0  0  0  0
 47 49  1  0  0  0  0
 47 50  1  1  0  0  0
 48 51  1  0  0  0  0
 49 52  1  0  0  0  0
 51 53  2  0  0  0  0
 52 54  1  0  0  0  0
 52 55  2  0  0  0  0
 53 56  1  0  0  0  0
 54 57  1  0  0  0  0
 56 58  2  0  0  0  0
 57 59  1  0  0  0  0
 57 60  1  6  0  0  0
 58 61  1  0  0  0  0
 59 62  1  0  0  0  0
 59 63  1  6  0  0  0
 61 64  1  6  0  0  0
 62 65  1  1  0  0  0
  7  9  1  0  0  0  0
 28 32  1  0  0  0  0
 61 62  1  0  0  0  0
  1 66  1  1  0  0  0
M  END
> <DATABASE_ID>
DB00681

> <DATABASE_NAME>
drugbank

> <SMILES>
[H][C@]12C[C@@H](O[C@@H]3O[C@H](C)[C@@H](O)[C@H](N)[C@@H]3O)\C=C\C=C\C=C\C=C\C=C\C=C\C=C\[C@H](C)[C@@H](O)[C@@H](C)[C@H](C)OC(=O)C[C@H](O)C[C@H](O)CC[C@@H](O)[C@H](O)C[C@H](O)C[C@](O)(C[C@H](O)[C@H]1C(O)=O)O2

> <INCHI_IDENTIFIER>
InChI=1S/C47H73NO17/c1-27-17-15-13-11-9-7-5-6-8-10-12-14-16-18-34(64-46-44(58)41(48)43(57)30(4)63-46)24-38-40(45(59)60)37(54)26-47(61,65-38)25-33(51)22-36(53)35(52)20-19-31(49)21-32(50)23-39(55)62-29(3)28(2)42(27)56/h5-18,27-38,40-44,46,49-54,56-58,61H,19-26,48H2,1-4H3,(H,59,60)/b6-5+,9-7+,10-8+,13-11+,14-12+,17-15+,18-16+/t27-,28-,29-,30+,31+,32+,33-,34-,35+,36+,37-,38-,40+,41-,42+,43+,44-,46-,47+/m0/s1

> <INCHI_KEY>
APKFDSVGJQXUKY-INPOYWNPSA-N

> <FORMULA>
C47H73NO17

> <MOLECULAR_WEIGHT>
924.079

> <EXACT_MASS>
923.487849915

> <JCHEM_ACCEPTOR_COUNT>
17

> <JCHEM_AVERAGE_POLARIZABILITY>
99.44733295400422

> <JCHEM_BIOAVAILABILITY>
0

> <JCHEM_DONOR_COUNT>
12

> <JCHEM_FORMAL_CHARGE>
0

> <JCHEM_GHOSE_FILTER>
0

> <JCHEM_IUPAC>
(1R,3S,5R,6R,9R,11R,15S,16R,17R,18S,19E,21E,23E,25E,27E,29E,31E,33R,35S,36R,37S)-33-{[(2R,3S,4S,5S,6R)-4-amino-3,5-dihydroxy-6-methyloxan-2-yl]oxy}-1,3,5,6,9,11,17,37-octahydroxy-15,16,18-trimethyl-13-oxo-14,39-dioxabicyclo[33.3.1]nonatriaconta-19,21,23,25,27,29,31-heptaene-36-carboxylic acid

> <ALOGPS_LOGP>
-0.66

> <JCHEM_LOGP>
-2.3001616917873178

> <ALOGPS_LOGS>
-4.05

> <JCHEM_MDDR_LIKE_RULE>
0

> <JCHEM_NUMBER_OF_RINGS>
3

> <JCHEM_PHYSIOLOGICAL_CHARGE>
0

> <JCHEM_PKA>
11.826572360496307

> <JCHEM_PKA_STRONGEST_ACIDIC>
3.579739281930252

> <JCHEM_PKA_STRONGEST_BASIC>
9.113099822252716

> <JCHEM_POLAR_SURFACE_AREA>
319.61

> <JCHEM_REFRACTIVITY>
244.6705000000001

> <JCHEM_ROTATABLE_BOND_COUNT>
3

> <JCHEM_RULE_OF_FIVE>
0

> <ALOGPS_SOLUBILITY>
8.19e-02 g/l

> <JCHEM_TRADITIONAL_IUPAC>
amphotericin B

> <JCHEM_VEBER_RULE>
0

> <DRUGBANK_ID>
DB00681

> <SECONDARY_ACCESSION_NUMBERS>
APRD00797

> <DRUG_GROUPS>
approved; investigational

> <GENERIC_NAME>
Amphotericin B

> <SYNONYMS>
Amfotericina B; AMPH-b; Amphotericin B; AmphotÃ©ricine B; Amphotericinum B; Liposomal amphotericin B

> <PRODUCTS>
Abelcet; AmBisome; Amphotec; Amphotec 100 mg; Amphotec 50 mg; Amphotericin B; Amphotericin B for Injection, USP; Fungizone

> <INTERNATIONAL_BRANDS>
Abelect; Ampho-Moronal; Amphocil; Amphocin; Amphotericin; Fungilin; Fungisome; Fungizone Intravenous; Halizon

> <SALTS>
Amphotericin B Cholesteryl Sulfate Complex; Corifungin

$$$$
