2812
  -OEChem-10051719113D

 42 45  0     0  0  0  0  0  0999 V2000
    0.6462   -0.1889    2.7630 Cl  0  0  0  0  0  0  0  0  0  0  0  0
   -0.4392   -0.0896   -1.7148 N   0  0  0  0  0  0  0  0  0  0  0  0
   -1.1342   -0.9044   -3.5599 N   0  0  0  0  0  0  0  0  0  0  0  0
   -0.1541    0.0030   -0.2084 C   0  0  0  0  0  0  0  0  0  0  0  0
    0.9178   -1.1183    0.2107 C   0  0  0  0  0  0  0  0  0  0  0  0
   -1.4994   -0.0743    0.4304 C   0  0  0  0  0  0  0  0  0  0  0  0
    0.7245    1.3132    0.0975 C   0  0  0  0  0  0  0  0  0  0  0  0
    1.2608   -1.1960    1.5031 C   0  0  0  0  0  0  0  0  0  0  0  0
    1.3571   -1.8700   -0.8149 C   0  0  0  0  0  0  0  0  0  0  0  0
   -2.4572    0.9030    0.1595 C   0  0  0  0  0  0  0  0  0  0  0  0
    0.1559    2.2192    0.9061 C   0  0  0  0  0  0  0  0  0  0  0  0
   -1.8001   -1.1236    1.2987 C   0  0  0  0  0  0  0  0  0  0  0  0
    1.9290    1.3563   -0.4896 C   0  0  0  0  0  0  0  0  0  0  0  0
   -0.1081    0.8548   -2.5651 C   0  0  0  0  0  0  0  0  0  0  0  0
   -1.0359   -1.1218   -2.2673 C   0  0  0  0  0  0  0  0  0  0  0  0
   -0.5572    0.3259   -3.7523 C   0  0  0  0  0  0  0  0  0  0  0  0
    2.1925   -2.1817    1.8284 C   0  0  0  0  0  0  0  0  0  0  0  0
    2.2889   -2.8556   -0.4897 C   0  0  0  0  0  0  0  0  0  0  0  0
   -3.7156    0.8308    0.7570 C   0  0  0  0  0  0  0  0  0  0  0  0
    0.9185    3.3566    1.1717 C   0  0  0  0  0  0  0  0  0  0  0  0
   -3.0584   -1.1959    1.8962 C   0  0  0  0  0  0  0  0  0  0  0  0
    2.6916    2.4937   -0.2240 C   0  0  0  0  0  0  0  0  0  0  0  0
    2.7066   -3.0115    0.8320 C   0  0  0  0  0  0  0  0  0  0  0  0
   -4.0162   -0.2187    1.6253 C   0  0  0  0  0  0  0  0  0  0  0  0
    2.1863    3.4938    0.6066 C   0  0  0  0  0  0  0  0  0  0  0  0
    1.1690   -1.7775   -1.8705 H   0  0  0  0  0  0  0  0  0  0  0  0
   -2.2603    1.7234   -0.5259 H   0  0  0  0  0  0  0  0  0  0  0  0
   -0.7947    2.1549    1.4104 H   0  0  0  0  0  0  0  0  0  0  0  0
   -1.1444   -1.9664    1.4827 H   0  0  0  0  0  0  0  0  0  0  0  0
    2.3473    0.6113   -1.1533 H   0  0  0  0  0  0  0  0  0  0  0  0
    0.3329    1.8223   -2.3801 H   0  0  0  0  0  0  0  0  0  0  0  0
   -1.4033   -2.0052   -1.7610 H   0  0  0  0  0  0  0  0  0  0  0  0
   -0.5086    0.7753   -4.7336 H   0  0  0  0  0  0  0  0  0  0  0  0
    2.5290   -2.3156    2.8534 H   0  0  0  0  0  0  0  0  0  0  0  0
    2.7052   -3.4900   -1.2671 H   0  0  0  0  0  0  0  0  0  0  0  0
   -4.4633    1.5887    0.5423 H   0  0  0  0  0  0  0  0  0  0  0  0
    0.5303    4.1312    1.8269 H   0  0  0  0  0  0  0  0  0  0  0  0
   -3.3008   -2.0242    2.5557 H   0  0  0  0  0  0  0  0  0  0  0  0
    3.6774    2.6027   -0.6669 H   0  0  0  0  0  0  0  0  0  0  0  0
    3.4356   -3.7760    1.0843 H   0  0  0  0  0  0  0  0  0  0  0  0
   -4.9979   -0.2782    2.0858 H   0  0  0  0  0  0  0  0  0  0  0  0
    2.7807    4.3787    0.8147 H   0  0  0  0  0  0  0  0  0  0  0  0
  1  8  1  0  0  0  0
  2  4  1  0  0  0  0
  2 14  1  0  0  0  0
  2 15  1  0  0  0  0
  3 15  2  0  0  0  0
  3 16  1  0  0  0  0
  4  5  1  0  0  0  0
  4  6  1  0  0  0  0
  4  7  1  0  0  0  0
  5  8  1  0  0  0  0
  5  9  2  0  0  0  0
  6 10  2  0  0  0  0
  6 12  1  0  0  0  0
  7 11  2  0  0  0  0
  7 13  1  0  0  0  0
  8 17  2  0  0  0  0
  9 18  1  0  0  0  0
  9 26  1  0  0  0  0
 10 19  1  0  0  0  0
 10 27  1  0  0  0  0
 11 20  1  0  0  0  0
 11 28  1  0  0  0  0
 12 21  2  0  0  0  0
 12 29  1  0  0  0  0
 13 22  2  0  0  0  0
 13 30  1  0  0  0  0
 14 16  2  0  0  0  0
 14 31  1  0  0  0  0
 15 32  1  0  0  0  0
 16 33  1  0  0  0  0
 17 23  1  0  0  0  0
 17 34  1  0  0  0  0
 18 23  2  0  0  0  0
 18 35  1  0  0  0  0
 19 24  2  0  0  0  0
 19 36  1  0  0  0  0
 20 25  2  0  0  0  0
 20 37  1  0  0  0  0
 21 24  1  0  0  0  0
 21 38  1  0  0  0  0
 22 25  1  0  0  0  0
 22 39  1  0  0  0  0
 23 40  1  0  0  0  0
 24 41  1  0  0  0  0
 25 42  1  0  0  0  0
M  END
> <DATABASE_ID>
DB00257

> <DATABASE_NAME>
drugbank

> <ORIGINAL_SOURCE>
PUBCHEM

> <ORIGINAL_SOURCE_URL>
https://pubchem.ncbi.nlm.nih.gov/rest/pug/compound/inchikey/VNFPBHJOKIVQEB-UHFFFAOYSA-N/SDF?record_type=3d

> <SMILES>
ClC1=CC=CC=C1C(N1C=CN=C1)(C1=CC=CC=C1)C1=CC=CC=C1

> <INCHI_IDENTIFIER>
InChI=1S/C22H17ClN2/c23-21-14-8-7-13-20(21)22(25-16-15-24-17-25,18-9-3-1-4-10-18)19-11-5-2-6-12-19/h1-17H

> <INCHI_KEY>
VNFPBHJOKIVQEB-UHFFFAOYSA-N

> <FORMULA>
C22H17ClN2

> <MOLECULAR_WEIGHT>
344.837

> <EXACT_MASS>
344.108026261

> <JCHEM_ACCEPTOR_COUNT>
1

> <JCHEM_AVERAGE_POLARIZABILITY>
36.248842985286885

> <JCHEM_BIOAVAILABILITY>
1

> <JCHEM_DONOR_COUNT>
0

> <JCHEM_FORMAL_CHARGE>
0

> <JCHEM_GHOSE_FILTER>
0

> <JCHEM_IUPAC>
1-[(2-chlorophenyl)diphenylmethyl]-1H-imidazole

> <ALOGPS_LOGP>
5.48

> <JCHEM_LOGP>
5.8394516706666675

> <ALOGPS_LOGS>
-5.37

> <JCHEM_MDDR_LIKE_RULE>
0

> <JCHEM_NUMBER_OF_RINGS>
4

> <JCHEM_PHYSIOLOGICAL_CHARGE>
0

> <JCHEM_PKA_STRONGEST_BASIC>
6.62392164146992

> <JCHEM_POLAR_SURFACE_AREA>
17.82

> <JCHEM_REFRACTIVITY>
103.76450000000004

> <JCHEM_ROTATABLE_BOND_COUNT>
4

> <JCHEM_RULE_OF_FIVE>
0

> <ALOGPS_SOLUBILITY>
1.47e-03 g/l

> <JCHEM_TRADITIONAL_IUPAC>
clotrimazole

> <JCHEM_VEBER_RULE>
1

$$$$
