65482
  -OEChem-10051719443D

 50 52  0     1  0  0  0  0  0999 V2000
   -0.4428    1.4785   -0.8664 O   0  0  0  0  0  0  0  0  0  0  0  0
   -1.0716    3.8088    1.7951 O   0  0  0  0  0  0  0  0  0  0  0  0
   -2.6028    3.8158   -0.4605 O   0  0  0  0  0  0  0  0  0  0  0  0
    3.9919   -0.8637   -1.9643 O   0  0  0  0  0  0  0  0  0  0  0  0
    5.2024   -2.3453   -0.7485 O   0  0  0  0  0  0  0  0  0  0  0  0
   -2.4613    0.2301   -0.8257 N   0  0  0  0  0  0  0  0  0  0  0  0
    2.7282    3.0169   -0.8362 N   0  0  0  0  0  0  0  0  0  0  0  0
   -3.8675   -1.4723   -1.1456 N   0  0  0  0  0  0  0  0  0  0  0  0
   -0.8975   -0.8085    0.7164 N   0  0  0  0  0  0  0  0  0  0  0  0
    3.0033   -2.5728    0.9763 N   0  0  0  0  0  0  0  0  0  0  0  0
   -1.5261   -3.1168    1.1983 N   0  0  0  0  0  0  0  0  0  0  0  0
   -3.4547   -4.1520    0.2306 N   0  0  0  0  0  0  0  0  0  0  0  0
    0.0124    2.4230    0.1162 C   0  0  1  0  0  0  0  0  0  0  0  0
   -1.1570    2.6015    1.0689 C   0  0  2  0  0  0  0  0  0  0  0  0
   -2.3483    2.5429    0.1313 C   0  0  2  0  0  0  0  0  0  0  0  0
   -1.8812    1.5682   -0.9511 C   0  0  1  0  0  0  0  0  0  0  0  0
    1.2677    1.8989    0.7903 C   0  0  0  0  0  0  0  0  0  0  0  0
    2.4585    1.7374   -0.1715 C   0  0  2  0  0  0  0  0  0  0  0  0
    3.7563    1.2023    0.4691 C   0  0  0  0  0  0  0  0  0  0  0  0
    3.6294   -0.1612    1.1704 C   0  0  0  0  0  0  0  0  0  0  0  0
   -1.9863   -0.8032   -0.0672 C   0  0  0  0  0  0  0  0  0  0  0  0
   -3.5930   -0.2219   -1.4537 C   0  0  0  0  0  0  0  0  0  0  0  0
    3.2216   -1.3231    0.2485 C   0  0  1  0  0  0  0  0  0  0  0  0
   -2.8713   -1.8481   -0.2799 C   0  0  0  0  0  0  0  0  0  0  0  0
   -2.6100   -3.0397    0.3890 C   0  0  0  0  0  0  0  0  0  0  0  0
    4.2483   -1.5833   -0.8400 C   0  0  0  0  0  0  0  0  0  0  0  0
   -0.7488   -2.0127    1.3101 C   0  0  0  0  0  0  0  0  0  0  0  0
    0.2164    3.3731   -0.3930 H   0  0  0  0  0  0  0  0  0  0  0  0
   -1.2039    1.7664    1.7776 H   0  0  0  0  0  0  0  0  0  0  0  0
   -3.2646    2.2386    0.6474 H   0  0  0  0  0  0  0  0  0  0  0  0
   -2.1257    1.9192   -1.9607 H   0  0  0  0  0  0  0  0  0  0  0  0
    1.0511    0.9253    1.2412 H   0  0  0  0  0  0  0  0  0  0  0  0
    1.5513    2.5720    1.6096 H   0  0  0  0  0  0  0  0  0  0  0  0
    2.1605    1.0419   -0.9638 H   0  0  0  0  0  0  0  0  0  0  0  0
    4.5502    1.1488   -0.2862 H   0  0  0  0  0  0  0  0  0  0  0  0
    4.1052    1.9269    1.2176 H   0  0  0  0  0  0  0  0  0  0  0  0
   -1.9006    3.9082    2.2935 H   0  0  0  0  0  0  0  0  0  0  0  0
    4.6023   -0.3924    1.6250 H   0  0  0  0  0  0  0  0  0  0  0  0
    2.9198   -0.0789    2.0024 H   0  0  0  0  0  0  0  0  0  0  0  0
   -3.3468    3.7053   -1.0770 H   0  0  0  0  0  0  0  0  0  0  0  0
    3.5120    2.9114   -1.4793 H   0  0  0  0  0  0  0  0  0  0  0  0
    3.0217    3.7064   -0.1449 H   0  0  0  0  0  0  0  0  0  0  0  0
   -4.1727    0.4031   -2.1192 H   0  0  0  0  0  0  0  0  0  0  0  0
    2.2675   -1.0893   -0.2373 H   0  0  0  0  0  0  0  0  0  0  0  0
    2.3387   -2.4196    1.7326 H   0  0  0  0  0  0  0  0  0  0  0  0
    2.5808   -3.2631    0.3566 H   0  0  0  0  0  0  0  0  0  0  0  0
    0.1006   -2.1057    1.9769 H   0  0  0  0  0  0  0  0  0  0  0  0
   -3.2430   -5.0071    0.7265 H   0  0  0  0  0  0  0  0  0  0  0  0
   -4.2635   -4.0972   -0.3736 H   0  0  0  0  0  0  0  0  0  0  0  0
    4.6565   -1.0326   -2.6657 H   0  0  0  0  0  0  0  0  0  0  0  0
  1 13  1  0  0  0  0
  1 16  1  0  0  0  0
  2 14  1  0  0  0  0
  2 37  1  0  0  0  0
  3 15  1  0  0  0  0
  3 40  1  0  0  0  0
  4 26  1  0  0  0  0
  4 50  1  0  0  0  0
  5 26  2  0  0  0  0
  6 16  1  0  0  0  0
  6 21  1  0  0  0  0
  6 22  1  0  0  0  0
  7 18  1  0  0  0  0
  7 41  1  0  0  0  0
  7 42  1  0  0  0  0
  8 22  2  0  0  0  0
  8 24  1  0  0  0  0
  9 21  2  0  0  0  0
  9 27  1  0  0  0  0
 10 23  1  0  0  0  0
 10 45  1  0  0  0  0
 10 46  1  0  0  0  0
 11 25  1  0  0  0  0
 11 27  2  0  0  0  0
 12 25  1  0  0  0  0
 12 48  1  0  0  0  0
 12 49  1  0  0  0  0
 13 14  1  0  0  0  0
 13 17  1  0  0  0  0
 13 28  1  0  0  0  0
 14 15  1  0  0  0  0
 14 29  1  0  0  0  0
 15 16  1  0  0  0  0
 15 30  1  0  0  0  0
 16 31  1  0  0  0  0
 17 18  1  0  0  0  0
 17 32  1  0  0  0  0
 17 33  1  0  0  0  0
 18 19  1  0  0  0  0
 18 34  1  0  0  0  0
 19 20  1  0  0  0  0
 19 35  1  0  0  0  0
 19 36  1  0  0  0  0
 20 23  1  0  0  0  0
 20 38  1  0  0  0  0
 20 39  1  0  0  0  0
 21 24  1  0  0  0  0
 22 43  1  0  0  0  0
 23 26  1  0  0  0  0
 23 44  1  0  0  0  0
 24 25  2  0  0  0  0
 27 47  1  0  0  0  0
M  END
> <DATABASE_ID>
DB01910

> <DATABASE_NAME>
drugbank

> <ORIGINAL_SOURCE>
PUBCHEM

> <ORIGINAL_SOURCE_URL>
https://pubchem.ncbi.nlm.nih.gov/rest/pug/compound/inchikey/LMXOHSDXUQEUSF-YECHIGJVSA-N/SDF?record_type=3d

> <SMILES>
[H][C@](N)(CC[C@]([H])(N)C(O)=O)C[C@@]1([H])O[C@@]([H])(N2C=NC3=C(N)N=CN=C23)[C@]([H])(O)[C@]1([H])O

> <INCHI_IDENTIFIER>
InChI=1S/C15H23N7O5/c16-6(1-2-7(17)15(25)26)3-8-10(23)11(24)14(27-8)22-5-21-9-12(18)19-4-20-13(9)22/h4-8,10-11,14,23-24H,1-3,16-17H2,(H,25,26)(H2,18,19,20)/t6-,7-,8+,10+,11+,14+/m0/s1

> <INCHI_KEY>
LMXOHSDXUQEUSF-YECHIGJVSA-N

> <FORMULA>
C15H23N7O5

> <MOLECULAR_WEIGHT>
381.387

> <EXACT_MASS>
381.176066881

> <JCHEM_ACCEPTOR_COUNT>
11

> <JCHEM_AVERAGE_POLARIZABILITY>
37.68650181215635

> <JCHEM_BIOAVAILABILITY>
0

> <JCHEM_DONOR_COUNT>
6

> <JCHEM_FORMAL_CHARGE>
0

> <JCHEM_GHOSE_FILTER>
0

> <JCHEM_IUPAC>
(2S,5S)-2,5-diamino-6-[(2R,3S,4R,5R)-5-(6-amino-9H-purin-9-yl)-3,4-dihydroxyoxolan-2-yl]hexanoic acid

> <ALOGPS_LOGP>
-3.05

> <JCHEM_LOGP>
-5.138679707504106

> <ALOGPS_LOGS>
-1.92

> <JCHEM_MDDR_LIKE_RULE>
1

> <JCHEM_NUMBER_OF_RINGS>
3

> <JCHEM_PHYSIOLOGICAL_CHARGE>
1

> <JCHEM_PKA>
12.48129078946981

> <JCHEM_PKA_STRONGEST_ACIDIC>
1.9480808652263852

> <JCHEM_PKA_STRONGEST_BASIC>
10.180208209426675

> <JCHEM_POLAR_SURFACE_AREA>
208.64999999999995

> <JCHEM_REFRACTIVITY>
92.67839999999998

> <JCHEM_ROTATABLE_BOND_COUNT>
7

> <JCHEM_RULE_OF_FIVE>
0

> <ALOGPS_SOLUBILITY>
4.63e+00 g/l

> <JCHEM_TRADITIONAL_IUPAC>
sinefungin

> <JCHEM_VEBER_RULE>
0

$$$$
