
  Mrv1909 10181920262D          

 54 60  0  0  1  0            999 V2000
   13.4426    2.8311    0.0000 C   0  0  0  0  0  0  0  0  0  0  0  0
   14.0367    0.0356    0.0000 C   0  0  0  0  0  0  0  0  0  0  0  0
   13.9945    2.2180    0.0000 C   0  0  0  0  0  0  0  0  0  0  0  0
   -0.8236    5.1596    0.0000 C   0  0  0  0  0  0  0  0  0  0  0  0
    9.4303    1.5876    0.0000 C   0  0  0  0  0  0  0  0  0  0  0  0
   10.0115    2.8929    0.0000 C   0  0  0  0  0  0  0  0  0  0  0  0
   10.1840    1.2520    0.0000 C   0  0  0  0  0  0  0  0  0  0  0  0
   10.7652    2.5574    0.0000 C   0  0  0  0  0  0  0  0  0  0  0  0
    6.2431    4.5707    0.0000 C   0  0  0  0  0  0  0  0  0  0  0  0
    5.6620    3.2654    0.0000 C   0  0  0  0  0  0  0  0  0  0  0  0
    5.4895    4.9063    0.0000 C   0  0  0  0  0  0  0  0  0  0  0  0
    4.9083    3.6009    0.0000 C   0  0  0  0  0  0  0  0  0  0  0  0
   -0.1092    4.7472    0.0000 C   0  0  0  0  0  0  0  0  0  0  0  0
    8.5042    3.5641    0.0000 C   0  0  0  0  0  0  0  0  0  0  0  0
    7.9230    2.2587    0.0000 C   0  0  0  0  0  0  0  0  0  0  0  0
    7.7505    3.8996    0.0000 C   0  0  0  0  0  0  0  0  0  0  0  0
    7.1693    2.5943    0.0000 C   0  0  0  0  0  0  0  0  0  0  0  0
   -0.1092    6.3971    0.0000 C   0  0  0  0  0  0  0  0  0  0  0  0
    1.9328    4.1950    0.0000 C   0  0  0  0  0  0  0  0  0  0  0  0
    3.4009    4.2720    0.0000 C   0  0  0  0  0  0  0  0  0  0  0  0
    2.4757    5.4145    0.0000 C   0  0  0  0  0  0  0  0  0  0  0  0
    0.8347    4.0797    0.0000 C   0  0  0  0  0  0  0  0  0  0  0  0
    1.3099    1.9984    0.0000 C   0  0  0  0  0  0  0  0  0  0  0  0
    1.9773    3.1545    0.0000 C   0  0  0  0  0  0  0  0  0  0  0  0
   11.7766    0.5944    0.0000 C   0  0  0  0  0  0  0  0  0  0  0  0
   14.2917    0.8202    0.0000 C   0  0  1  0  0  0  0  0  0  0  0  0
    2.6473    4.6076    0.0000 C   0  0  2  0  0  0  0  0  0  0  0  0
   -0.8236    5.9846    0.0000 C   0  0  0  0  0  0  0  0  0  0  0  0
    9.3441    2.4080    0.0000 C   0  0  0  0  0  0  0  0  0  0  0  0
    6.3294    3.7502    0.0000 C   0  0  0  0  0  0  0  0  0  0  0  0
   10.8514    1.7369    0.0000 C   0  0  0  0  0  0  0  0  0  0  0  0
    4.8220    4.4213    0.0000 C   0  0  0  0  0  0  0  0  0  0  0  0
    0.6052    5.1596    0.0000 C   0  0  0  0  0  0  0  0  0  0  0  0
    0.6052    5.9846    0.0000 C   0  0  0  0  0  0  0  0  0  0  0  0
   13.7397    1.4334    0.0000 C   0  0  1  0  0  0  0  0  0  0  0  0
   12.3196    1.8139    0.0000 C   0  0  0  0  0  0  0  0  0  0  0  0
    1.3196    4.7472    0.0000 C   0  0  2  0  0  0  0  0  0  0  0  0
   -1.5381    6.3971    0.0000 F   0  0  0  0  0  0  0  0  0  0  0  0
    1.3196    6.3971    0.0000 F   0  0  0  0  0  0  0  0  0  0  0  0
    2.0635    2.3340    0.0000 N   0  0  0  0  0  0  0  0  0  0  0  0
    0.7578    2.6115    0.0000 N   0  0  0  0  0  0  0  0  0  0  0  0
   12.5971    0.5081    0.0000 N   0  0  0  0  0  0  0  0  0  0  0  0
    8.5904    2.7436    0.0000 N   0  0  0  0  0  0  0  0  0  0  0  0
    7.0830    3.4147    0.0000 N   0  0  0  0  0  0  0  0  0  0  0  0
    1.1703    3.3260    0.0000 N   0  0  0  0  0  0  0  0  0  0  0  0
   11.6051    1.4013    0.0000 N   0  0  0  0  0  0  0  0  0  0  0  0
   12.9326    1.2618    0.0000 N   0  0  0  0  0  0  0  0  0  0  0  0
   15.0986    0.9918    0.0000 O   0  0  0  0  0  0  0  0  0  0  0  0
   12.4058    2.6343    0.0000 O   0  0  0  0  0  0  0  0  0  0  0  0
    4.0683    4.7569    0.0000 O   0  0  0  0  0  0  0  0  0  0  0  0
    1.6552    5.5008    0.0000 O   0  0  0  0  0  0  0  0  0  0  0  0
   13.4847    0.6488    0.0000 H   0  0  0  0  0  0  0  0  0  0  0  0
    2.6904    3.7837    0.0000 H   0  0  0  0  0  0  0  0  0  0  0  0
   14.5466    1.6049    0.0000 H   0  0  0  0  0  0  0  0  0  0  0  0
  3  1  1  0  0  0  0
  7  5  1  0  0  0  0
  8  6  2  0  0  0  0
 11  9  1  0  0  0  0
 12 10  2  0  0  0  0
 13  4  2  0  0  0  0
 16 14  1  0  0  0  0
 17 15  1  0  0  0  0
 26  2  1  0  0  0  0
 27 19  1  0  0  0  0
 27 20  1  1  0  0  0
 27 21  1  0  0  0  0
 28  4  1  0  0  0  0
 28 18  2  0  0  0  0
 29  5  2  0  0  0  0
 29  6  1  0  0  0  0
 30  9  2  0  0  0  0
 30 10  1  0  0  0  0
 31  7  2  0  0  0  0
 31  8  1  0  0  0  0
 32 11  2  0  0  0  0
 32 12  1  0  0  0  0
 33 13  1  0  0  0  0
 34 18  1  0  0  0  0
 34 33  2  0  0  0  0
 35  3  1  0  0  0  0
 35 26  1  0  0  0  0
 37 19  1  0  0  0  0
 37 22  1  1  0  0  0
 37 33  1  6  0  0  0
 38 28  1  0  0  0  0
 39 34  1  0  0  0  0
 40 23  1  0  0  0  0
 40 24  2  0  0  0  0
 41 23  2  0  0  0  0
 42 25  2  0  0  0  0
 43 14  1  0  0  0  0
 43 15  1  0  0  0  0
 43 29  1  0  0  0  0
 44 16  1  0  0  0  0
 44 17  1  0  0  0  0
 44 30  1  0  0  0  0
 45 22  1  0  0  0  0
 45 24  1  0  0  0  0
 45 41  1  0  0  0  0
 46 25  1  0  0  0  0
 46 31  1  0  0  0  0
 46 36  1  0  0  0  0
 35 47  1  6  0  0  0
 47 36  1  0  0  0  0
 47 42  1  0  0  0  0
 26 48  1  6  0  0  0
 49 36  2  0  0  0  0
 50 20  1  0  0  0  0
 50 32  1  0  0  0  0
 51 21  1  0  0  0  0
 51 37  1  0  0  0  0
 26 52  1  6  0  0  0
 27 53  1  6  0  0  0
 35 54  1  6  0  0  0
M  END
> <DATABASE_ID>
DB01263

> <DATABASE_NAME>
drugbank

> <SMILES>
[H][C@@](C)(O)[C@]([H])(CC)N1N=CN(C1=O)C1=CC=C(C=C1)N1CCN(CC1)C1=CC=C(OC[C@]2([H])CO[C@](CN3C=NC=N3)(C2)C2=C(F)C=C(F)C=C2)C=C1

> <INCHI_IDENTIFIER>
InChI=1S/C37H42F2N8O4/c1-3-35(26(2)48)47-36(49)46(25-42-47)31-7-5-29(6-8-31)43-14-16-44(17-15-43)30-9-11-32(12-10-30)50-20-27-19-37(51-21-27,22-45-24-40-23-41-45)33-13-4-28(38)18-34(33)39/h4-13,18,23-27,35,48H,3,14-17,19-22H2,1-2H3/t26-,27+,35-,37-/m0/s1

> <INCHI_KEY>
RAGOYPUPXAKGKH-XAKZXMRKSA-N

> <FORMULA>
C37H42F2N8O4

> <MOLECULAR_WEIGHT>
700.7774

> <EXACT_MASS>
700.329708282

> <JCHEM_ACCEPTOR_COUNT>
9

> <JCHEM_ATOM_COUNT>
93

> <JCHEM_AVERAGE_POLARIZABILITY>
73.83042930723754

> <JCHEM_BIOAVAILABILITY>
0

> <JCHEM_DONOR_COUNT>
1

> <JCHEM_FORMAL_CHARGE>
0

> <JCHEM_GHOSE_FILTER>
0

> <JCHEM_IUPAC>
4-{4-[4-(4-{[(3R,5R)-5-(2,4-difluorophenyl)-5-[(1H-1,2,4-triazol-1-yl)methyl]oxolan-3-yl]methoxy}phenyl)piperazin-1-yl]phenyl}-1-[(2S,3S)-2-hydroxypentan-3-yl]-4,5-dihydro-1H-1,2,4-triazol-5-one

> <ALOGPS_LOGP>
4.71

> <JCHEM_LOGP>
5.406185238

> <ALOGPS_LOGS>
-4.77

> <JCHEM_MDDR_LIKE_RULE>
1

> <JCHEM_NUMBER_OF_RINGS>
7

> <JCHEM_PHYSIOLOGICAL_CHARGE>
0

> <JCHEM_PKA_STRONGEST_ACIDIC>
14.826501017537103

> <JCHEM_PKA_STRONGEST_BASIC>
3.9255232532955855

> <JCHEM_POLAR_SURFACE_AREA>
111.79000000000002

> <JCHEM_REFRACTIVITY>
200.70579999999995

> <JCHEM_ROTATABLE_BOND_COUNT>
12

> <JCHEM_RULE_OF_FIVE>
0

> <ALOGPS_SOLUBILITY>
1.20e-02 g/l

> <JCHEM_TRADITIONAL_IUPAC>
posaconazole

> <JCHEM_VEBER_RULE>
0

> <DRUGBANK_ID>
DB01263

> <DRUG_GROUPS>
approved; investigational; vet_approved

> <GENERIC_NAME>
Posaconazole

> <SYNONYMS>
Posaconazole

> <PRODUCTS>
Noxafil; Posaconazole; Posaconazole Sp; Posanol; Sandoz Posaconazole

$$$$
